data_image0
_cell_length_a       65.2429
_cell_length_b       55
_cell_length_c       86.844
_cell_angle_alpha    90
_cell_angle_beta     90
_cell_angle_gamma    90

_symmetry_space_group_name_H-M    "P 1"
_symmetry_int_tables_number       1

loop_
  _symmetry_equiv_pos_as_xyz
  'x, y, z'

loop_
  _atom_site_label
  _atom_site_occupancy
  _atom_site_fract_x
  _atom_site_fract_y
  _atom_site_fract_z
  _atom_site_thermal_displace_type
  _atom_site_B_iso_or_equiv
  _atom_site_type_symbol
  O1       1.0000 0.23942  0.11585  0.26295  Biso   1.000  O 
  O2       1.0000 0.09286  0.11585  0.26130  Biso   1.000  O 
  O3       1.0000 0.16805  0.11585  0.27520  Biso   1.000  O 
  O4       1.0000 0.13580  0.05335  0.25195  Biso   1.000  O 
  O5       1.0000 0.03236  0.05335  0.25360  Biso   1.000  O 
  O6       1.0000 0.20717  0.05335  0.23970  Biso   1.000  O 
  O7       1.0000 0.13580  0.00842  0.25195  Biso   1.000  O 
  O8       1.0000 0.03236  0.00842  0.25360  Biso   1.000  O 
  O9       1.0000 0.20717  0.00842  0.23970  Biso   1.000  O 
  O10      1.0000 0.23942  0.07093  0.26295  Biso   1.000  O 
  O11      1.0000 0.09286  0.07093  0.26130  Biso   1.000  O 
  O12      1.0000 0.16805  0.07093  0.27520  Biso   1.000  O 
  Ca1      1.0000 0.16678  0.12445  0.23034  Biso   1.000  Ca
  Ca2      1.0000 0.08344  0.06196  0.23035  Biso   1.000  Ca
  Ca3      1.0000 0.08344  0.12482  0.23035  Biso   1.000  Ca
  Ca4      1.0000 0.16678  0.06231  0.23034  Biso   1.000  Ca
  Ca5      1.0000 0.22006  0.09338  0.24410  Biso   1.000  Ca
  P1       1.0000 0.24636  0.09338  0.27194  Biso   1.000  P 
  O13      1.0000 0.10984  0.09338  0.23317  Biso   1.000  O 
  O14      1.0000 0.01963  0.09338  0.27447  Biso   1.000  O 
  Ca6      1.0000 0.12429  0.09338  0.25813  Biso   1.000  Ca
  P2       1.0000 0.07904  0.09338  0.26132  Biso   1.000  P 
  O15      1.0000 0.06700  0.09338  0.24611  Biso   1.000  O 
  O16      1.0000 0.06449  0.09338  0.27519  Biso   1.000  O 
  Ca7      1.0000 0.03099  0.09338  0.24303  Biso   1.000  Ca
  P3       1.0000 0.17495  0.09338  0.26620  Biso   1.000  P 
  O17      1.0000 0.19850  0.09338  0.26598  Biso   1.000  O 
  O18      1.0000 0.16622  0.09338  0.24980  Biso   1.000  O 
  Ca8      1.0000 0.15518  0.03089  0.27081  Biso   1.000  Ca
  P4       1.0000 0.12886  0.03089  0.24296  Biso   1.000  P 
  O19      1.0000 0.01539  0.03089  0.28174  Biso   1.000  O 
  O20      1.0000 0.10560  0.03089  0.24043  Biso   1.000  O 
  Ca9      1.0000 0.00093  0.03089  0.25677  Biso   1.000  Ca
  P5       1.0000 0.04619  0.03089  0.25359  Biso   1.000  P 
  O21      1.0000 0.05822  0.03089  0.26880  Biso   1.000  O 
  O22      1.0000 0.06073  0.03089  0.23971  Biso   1.000  O 
  Ca10     1.0000 0.09422  0.03089  0.27188  Biso   1.000  Ca
  P6       1.0000 0.20028  0.03089  0.24870  Biso   1.000  P 
  O23      1.0000 0.17672  0.03089  0.24892  Biso   1.000  O 
  O24      1.0000 0.20900  0.03089  0.26510  Biso   1.000  O 
  O25      1.0000 0.00011  0.02438  0.23034  Biso   1.000  O 
  O26      1.0000 0.00011  0.08687  0.23034  Biso   1.000  O 
  H1       1.0000 0.00011  0.00420  0.23034  Biso   1.000  H 
  H2       1.0000 0.00022  0.06669  0.23030  Biso   1.000  H 
  O27      1.0000 0.11442  0.11585  0.31717  Biso   1.000  O 
  O28      1.0000 0.21786  0.11585  0.31552  Biso   1.000  O 
  O29      1.0000 0.04305  0.11585  0.32942  Biso   1.000  O 
  O30      1.0000 0.01080  0.05335  0.30617  Biso   1.000  O 
  O31      1.0000 0.15736  0.05335  0.30782  Biso   1.000  O 
  O32      1.0000 0.08217  0.05335  0.29391  Biso   1.000  O 
  O33      1.0000 0.01080  0.00842  0.30617  Biso   1.000  O 
  O34      1.0000 0.15736  0.00842  0.30782  Biso   1.000  O 
  O35      1.0000 0.08217  0.00842  0.29391  Biso   1.000  O 
  O36      1.0000 0.11442  0.07093  0.31717  Biso   1.000  O 
  O37      1.0000 0.21786  0.07093  0.31552  Biso   1.000  O 
  O38      1.0000 0.04305  0.07093  0.32942  Biso   1.000  O 
  Ca11     1.0000 0.04178  0.12445  0.28456  Biso   1.000  Ca
  Ca12     1.0000 0.20844  0.06196  0.28456  Biso   1.000  Ca
  Ca13     1.0000 0.20844  0.12482  0.28456  Biso   1.000  Ca
  Ca14     1.0000 0.04178  0.06231  0.28456  Biso   1.000  Ca
  Ca15     1.0000 0.09506  0.09338  0.29832  Biso   1.000  Ca
  P7       1.0000 0.12136  0.09338  0.32616  Biso   1.000  P 
  O39      1.0000 0.23484  0.09338  0.28738  Biso   1.000  O 
  O40      1.0000 0.14463  0.09338  0.32869  Biso   1.000  O 
  Ca16     1.0000 0.24929  0.09338  0.31234  Biso   1.000  Ca
  P8       1.0000 0.20404  0.09338  0.31554  Biso   1.000  P 
  O41      1.0000 0.19200  0.09338  0.30033  Biso   1.000  O 
  O42      1.0000 0.18949  0.09338  0.32941  Biso   1.000  O 
  Ca17     1.0000 0.15599  0.09338  0.29725  Biso   1.000  Ca
  P9       1.0000 0.04995  0.09338  0.32042  Biso   1.000  P 
  O43      1.0000 0.07350  0.09338  0.32020  Biso   1.000  O 
  O44      1.0000 0.04122  0.09338  0.30402  Biso   1.000  O 
  Ca18     1.0000 0.03018  0.03089  0.32502  Biso   1.000  Ca
  P10      1.0000 0.00386  0.03089  0.29718  Biso   1.000  P 
  O45      1.0000 0.14039  0.03089  0.33596  Biso   1.000  O 
  O46      1.0000 0.23060  0.03089  0.29465  Biso   1.000  O 
  Ca19     1.0000 0.12593  0.03089  0.31099  Biso   1.000  Ca
  P11      1.0000 0.17119  0.03089  0.30781  Biso   1.000  P 
  O47      1.0000 0.18322  0.03089  0.32302  Biso   1.000  O 
  O48      1.0000 0.18573  0.03089  0.29393  Biso   1.000  O 
  Ca20     1.0000 0.21922  0.03089  0.32610  Biso   1.000  Ca
  P12      1.0000 0.07528  0.03089  0.30291  Biso   1.000  P 
  O49      1.0000 0.05172  0.03089  0.30314  Biso   1.000  O 
  O50      1.0000 0.08400  0.03089  0.31932  Biso   1.000  O 
  O51      1.0000 0.12511  0.02438  0.28456  Biso   1.000  O 
  O52      1.0000 0.12511  0.08687  0.28456  Biso   1.000  O 
  H3       1.0000 0.12511  0.00420  0.28456  Biso   1.000  H 
  H4       1.0000 0.12522  0.06669  0.28452  Biso   1.000  H 
  O53      1.0000 0.23942  0.11585  0.37139  Biso   1.000  O 
  O54      1.0000 0.09286  0.11585  0.36974  Biso   1.000  O 
  O55      1.0000 0.16805  0.11585  0.38364  Biso   1.000  O 
  O56      1.0000 0.13580  0.05335  0.36038  Biso   1.000  O 
  O57      1.0000 0.03236  0.05335  0.36204  Biso   1.000  O 
  O58      1.0000 0.20717  0.05335  0.34813  Biso   1.000  O 
  O59      1.0000 0.13580  0.00842  0.36038  Biso   1.000  O 
  O60      1.0000 0.03236  0.00842  0.36204  Biso   1.000  O 
  O61      1.0000 0.20717  0.00842  0.34813  Biso   1.000  O 
  O62      1.0000 0.23942  0.07093  0.37139  Biso   1.000  O 
  O63      1.0000 0.09286  0.07093  0.36974  Biso   1.000  O 
  O64      1.0000 0.16805  0.07093  0.38364  Biso   1.000  O 
  Ca21     1.0000 0.16678  0.12445  0.33877  Biso   1.000  Ca
  Ca22     1.0000 0.08344  0.06196  0.33878  Biso   1.000  Ca
  Ca23     1.0000 0.08344  0.12482  0.33878  Biso   1.000  Ca
  Ca24     1.0000 0.16678  0.06231  0.33877  Biso   1.000  Ca
  Ca25     1.0000 0.22006  0.09338  0.35254  Biso   1.000  Ca
  P13      1.0000 0.24636  0.09338  0.38038  Biso   1.000  P 
  O65      1.0000 0.10984  0.09338  0.34160  Biso   1.000  O 
  O66      1.0000 0.01963  0.09338  0.38291  Biso   1.000  O 
  Ca26     1.0000 0.12429  0.09338  0.36656  Biso   1.000  Ca
  P14      1.0000 0.07904  0.09338  0.36975  Biso   1.000  P 
  O67      1.0000 0.06700  0.09338  0.35454  Biso   1.000  O 
  O68      1.0000 0.06449  0.09338  0.38362  Biso   1.000  O 
  Ca27     1.0000 0.03099  0.09338  0.35146  Biso   1.000  Ca
  P15      1.0000 0.17495  0.09338  0.37464  Biso   1.000  P 
  O69      1.0000 0.19850  0.09338  0.37442  Biso   1.000  O 
  O70      1.0000 0.16622  0.09338  0.35824  Biso   1.000  O 
  Ca28     1.0000 0.15518  0.03089  0.37924  Biso   1.000  Ca
  P16      1.0000 0.12886  0.03089  0.35140  Biso   1.000  P 
  O71      1.0000 0.01539  0.03089  0.39018  Biso   1.000  O 
  O72      1.0000 0.10560  0.03089  0.34887  Biso   1.000  O 
  Ca29     1.0000 0.00093  0.03089  0.36521  Biso   1.000  Ca
  P17      1.0000 0.04619  0.03089  0.36203  Biso   1.000  P 
  O73      1.0000 0.05822  0.03089  0.37724  Biso   1.000  O 
  O74      1.0000 0.06073  0.03089  0.34815  Biso   1.000  O 
  Ca30     1.0000 0.09422  0.03089  0.38032  Biso   1.000  Ca
  P18      1.0000 0.20028  0.03089  0.35713  Biso   1.000  P 
  O75      1.0000 0.17672  0.03089  0.35736  Biso   1.000  O 
  O76      1.0000 0.20900  0.03089  0.37353  Biso   1.000  O 
  O77      1.0000 0.00011  0.02438  0.33878  Biso   1.000  O 
  O78      1.0000 0.00011  0.08687  0.33878  Biso   1.000  O 
  H5       1.0000 0.00011  0.00420  0.33878  Biso   1.000  H 
  H6       1.0000 0.00022  0.06669  0.33873  Biso   1.000  H 
  O79      1.0000 0.11442  0.11585  0.42561  Biso   1.000  O 
  O80      1.0000 0.21786  0.11585  0.42395  Biso   1.000  O 
  O81      1.0000 0.04305  0.11585  0.43786  Biso   1.000  O 
  O82      1.0000 0.01080  0.05335  0.41460  Biso   1.000  O 
  O83      1.0000 0.15736  0.05335  0.41625  Biso   1.000  O 
  O84      1.0000 0.08217  0.05335  0.40235  Biso   1.000  O 
  O85      1.0000 0.01080  0.00842  0.41460  Biso   1.000  O 
  O86      1.0000 0.15736  0.00842  0.41625  Biso   1.000  O 
  O87      1.0000 0.08217  0.00842  0.40235  Biso   1.000  O 
  O88      1.0000 0.11442  0.07093  0.42561  Biso   1.000  O 
  O89      1.0000 0.21786  0.07093  0.42395  Biso   1.000  O 
  O90      1.0000 0.04305  0.07093  0.43786  Biso   1.000  O 
  Ca31     1.0000 0.04178  0.12445  0.39299  Biso   1.000  Ca
  Ca32     1.0000 0.20844  0.06196  0.39300  Biso   1.000  Ca
  Ca33     1.0000 0.20844  0.12482  0.39300  Biso   1.000  Ca
  Ca34     1.0000 0.04178  0.06231  0.39299  Biso   1.000  Ca
  Ca35     1.0000 0.09506  0.09338  0.40675  Biso   1.000  Ca
  P19      1.0000 0.12136  0.09338  0.43460  Biso   1.000  P 
  O91      1.0000 0.23484  0.09338  0.39582  Biso   1.000  O 
  O92      1.0000 0.14463  0.09338  0.43713  Biso   1.000  O 
  Ca36     1.0000 0.24929  0.09338  0.42078  Biso   1.000  Ca
  P20      1.0000 0.20404  0.09338  0.42397  Biso   1.000  P 
  O93      1.0000 0.19200  0.09338  0.40876  Biso   1.000  O 
  O94      1.0000 0.18949  0.09338  0.43784  Biso   1.000  O 
  Ca37     1.0000 0.15599  0.09338  0.40568  Biso   1.000  Ca
  P21      1.0000 0.04995  0.09338  0.42886  Biso   1.000  P 
  O95      1.0000 0.07350  0.09338  0.42864  Biso   1.000  O 
  O96      1.0000 0.04122  0.09338  0.41246  Biso   1.000  O 
  Ca38     1.0000 0.03018  0.03089  0.43346  Biso   1.000  Ca
  P22      1.0000 0.00386  0.03089  0.40561  Biso   1.000  P 
  O97      1.0000 0.14039  0.03089  0.44439  Biso   1.000  O 
  O98      1.0000 0.23060  0.03089  0.40309  Biso   1.000  O 
  Ca39     1.0000 0.12593  0.03089  0.41943  Biso   1.000  Ca
  P23      1.0000 0.17119  0.03089  0.41624  Biso   1.000  P 
  O99      1.0000 0.18322  0.03089  0.43146  Biso   1.000  O 
  O100     1.0000 0.18573  0.03089  0.40237  Biso   1.000  O 
  Ca40     1.0000 0.21922  0.03089  0.43454  Biso   1.000  Ca
  P24      1.0000 0.07528  0.03089  0.41135  Biso   1.000  P 
  O101     1.0000 0.05172  0.03089  0.41157  Biso   1.000  O 
  O102     1.0000 0.08400  0.03089  0.42775  Biso   1.000  O 
  O103     1.0000 0.12511  0.02438  0.39300  Biso   1.000  O 
  O104     1.0000 0.12511  0.08687  0.39300  Biso   1.000  O 
  H7       1.0000 0.12511  0.00420  0.39300  Biso   1.000  H 
  H8       1.0000 0.12522  0.06669  0.39295  Biso   1.000  H 
  O105     1.0000 0.23942  0.11585  0.47982  Biso   1.000  O 
  O106     1.0000 0.09286  0.11585  0.47817  Biso   1.000  O 
  O107     1.0000 0.16805  0.11585  0.49208  Biso   1.000  O 
  O108     1.0000 0.13580  0.05335  0.46882  Biso   1.000  O 
  O109     1.0000 0.03236  0.05335  0.47047  Biso   1.000  O 
  O110     1.0000 0.20717  0.05335  0.45657  Biso   1.000  O 
  O111     1.0000 0.13580  0.00842  0.46882  Biso   1.000  O 
  O112     1.0000 0.03236  0.00842  0.47047  Biso   1.000  O 
  O113     1.0000 0.20717  0.00842  0.45657  Biso   1.000  O 
  O114     1.0000 0.23942  0.07093  0.47982  Biso   1.000  O 
  O115     1.0000 0.09286  0.07093  0.47817  Biso   1.000  O 
  O116     1.0000 0.16805  0.07093  0.49208  Biso   1.000  O 
  Ca41     1.0000 0.16678  0.12445  0.44721  Biso   1.000  Ca
  Ca42     1.0000 0.08344  0.06196  0.44722  Biso   1.000  Ca
  Ca43     1.0000 0.08344  0.12482  0.44722  Biso   1.000  Ca
  Ca44     1.0000 0.16678  0.06231  0.44721  Biso   1.000  Ca
  Ca45     1.0000 0.22006  0.09338  0.46097  Biso   1.000  Ca
  P25      1.0000 0.24636  0.09338  0.48881  Biso   1.000  P 
  O117     1.0000 0.10984  0.09338  0.45004  Biso   1.000  O 
  O118     1.0000 0.01963  0.09338  0.49134  Biso   1.000  O 
  Ca46     1.0000 0.12429  0.09338  0.47500  Biso   1.000  Ca
  P26      1.0000 0.07904  0.09338  0.47819  Biso   1.000  P 
  O119     1.0000 0.06700  0.09338  0.46298  Biso   1.000  O 
  O120     1.0000 0.06449  0.09338  0.49206  Biso   1.000  O 
  Ca47     1.0000 0.03099  0.09338  0.45990  Biso   1.000  Ca
  P27      1.0000 0.17495  0.09338  0.48308  Biso   1.000  P 
  O121     1.0000 0.19850  0.09338  0.48285  Biso   1.000  O 
  O122     1.0000 0.16622  0.09338  0.46667  Biso   1.000  O 
  Ca48     1.0000 0.15518  0.03089  0.48768  Biso   1.000  Ca
  P28      1.0000 0.12886  0.03089  0.45983  Biso   1.000  P 
  O123     1.0000 0.01539  0.03089  0.49861  Biso   1.000  O 
  O124     1.0000 0.10560  0.03089  0.45731  Biso   1.000  O 
  Ca49     1.0000 0.00093  0.03089  0.47365  Biso   1.000  Ca
  P29      1.0000 0.04619  0.03089  0.47046  Biso   1.000  P 
  O125     1.0000 0.05822  0.03089  0.48568  Biso   1.000  O 
  O126     1.0000 0.06073  0.03089  0.45658  Biso   1.000  O 
  Ca50     1.0000 0.09422  0.03089  0.48875  Biso   1.000  Ca
  P30      1.0000 0.20028  0.03089  0.46557  Biso   1.000  P 
  O127     1.0000 0.17672  0.03089  0.46579  Biso   1.000  O 
  O128     1.0000 0.20900  0.03089  0.48197  Biso   1.000  O 
  O129     1.0000 0.00011  0.02438  0.44722  Biso   1.000  O 
  O130     1.0000 0.00011  0.08687  0.44722  Biso   1.000  O 
  H9       1.0000 0.00011  0.00420  0.44722  Biso   1.000  H 
  H10      1.0000 0.00022  0.06669  0.44717  Biso   1.000  H 
  O131     1.0000 0.11442  0.11585  0.53404  Biso   1.000  O 
  O132     1.0000 0.21786  0.11585  0.53239  Biso   1.000  O 
  O133     1.0000 0.04305  0.11585  0.54629  Biso   1.000  O 
  O134     1.0000 0.01080  0.05335  0.52304  Biso   1.000  O 
  O135     1.0000 0.15736  0.05335  0.52469  Biso   1.000  O 
  O136     1.0000 0.08217  0.05335  0.51079  Biso   1.000  O 
  O137     1.0000 0.01080  0.00842  0.52304  Biso   1.000  O 
  O138     1.0000 0.15736  0.00842  0.52469  Biso   1.000  O 
  O139     1.0000 0.08217  0.00842  0.51079  Biso   1.000  O 
  O140     1.0000 0.11442  0.07093  0.53404  Biso   1.000  O 
  O141     1.0000 0.21786  0.07093  0.53239  Biso   1.000  O 
  O142     1.0000 0.04305  0.07093  0.54629  Biso   1.000  O 
  Ca51     1.0000 0.04178  0.12445  0.50143  Biso   1.000  Ca
  Ca52     1.0000 0.20844  0.06196  0.50144  Biso   1.000  Ca
  Ca53     1.0000 0.20844  0.12482  0.50144  Biso   1.000  Ca
  Ca54     1.0000 0.04178  0.06231  0.50143  Biso   1.000  Ca
  Ca55     1.0000 0.09506  0.09338  0.51519  Biso   1.000  Ca
  P31      1.0000 0.12136  0.09338  0.54303  Biso   1.000  P 
  O143     1.0000 0.23484  0.09338  0.50426  Biso   1.000  O 
  O144     1.0000 0.14463  0.09338  0.54556  Biso   1.000  O 
  Ca56     1.0000 0.24929  0.09338  0.52922  Biso   1.000  Ca
  P32      1.0000 0.20404  0.09338  0.53241  Biso   1.000  P 
  O145     1.0000 0.19200  0.09338  0.51720  Biso   1.000  O 
  O146     1.0000 0.18949  0.09338  0.54628  Biso   1.000  O 
  Ca57     1.0000 0.15599  0.09338  0.51412  Biso   1.000  Ca
  P33      1.0000 0.04995  0.09338  0.53729  Biso   1.000  P 
  O147     1.0000 0.07350  0.09338  0.53707  Biso   1.000  O 
  O148     1.0000 0.04122  0.09338  0.52089  Biso   1.000  O 
  Ca58     1.0000 0.03018  0.03089  0.54190  Biso   1.000  Ca
  P34      1.0000 0.00386  0.03089  0.51405  Biso   1.000  P 
  O149     1.0000 0.14039  0.03089  0.55283  Biso   1.000  O 
  O150     1.0000 0.23060  0.03089  0.51152  Biso   1.000  O 
  Ca59     1.0000 0.12593  0.03089  0.52786  Biso   1.000  Ca
  P35      1.0000 0.17119  0.03089  0.52468  Biso   1.000  P 
  O151     1.0000 0.18322  0.03089  0.53989  Biso   1.000  O 
  O152     1.0000 0.18573  0.03089  0.51080  Biso   1.000  O 
  Ca60     1.0000 0.21922  0.03089  0.54297  Biso   1.000  Ca
  P36      1.0000 0.07528  0.03089  0.51979  Biso   1.000  P 
  O153     1.0000 0.05172  0.03089  0.52001  Biso   1.000  O 
  O154     1.0000 0.08400  0.03089  0.53619  Biso   1.000  O 
  O155     1.0000 0.12511  0.02438  0.50143  Biso   1.000  O 
  O156     1.0000 0.12511  0.08687  0.50143  Biso   1.000  O 
  H11      1.0000 0.12511  0.00420  0.50143  Biso   1.000  H 
  H12      1.0000 0.12522  0.06669  0.50139  Biso   1.000  H 
  O157     1.0000 0.23942  0.11585  0.58826  Biso   1.000  O 
  O158     1.0000 0.09286  0.11585  0.58661  Biso   1.000  O 
  O159     1.0000 0.16805  0.11585  0.60051  Biso   1.000  O 
  O160     1.0000 0.13580  0.05335  0.57726  Biso   1.000  O 
  O161     1.0000 0.03236  0.05335  0.57891  Biso   1.000  O 
  O162     1.0000 0.20717  0.05335  0.56500  Biso   1.000  O 
  O163     1.0000 0.13580  0.00842  0.57726  Biso   1.000  O 
  O164     1.0000 0.03236  0.00842  0.57891  Biso   1.000  O 
  O165     1.0000 0.20717  0.00842  0.56500  Biso   1.000  O 
  O166     1.0000 0.23942  0.07093  0.58826  Biso   1.000  O 
  O167     1.0000 0.09286  0.07093  0.58661  Biso   1.000  O 
  O168     1.0000 0.16805  0.07093  0.60051  Biso   1.000  O 
  Ca61     1.0000 0.16678  0.12445  0.55565  Biso   1.000  Ca
  Ca62     1.0000 0.08344  0.06196  0.55565  Biso   1.000  Ca
  Ca63     1.0000 0.08344  0.12482  0.55565  Biso   1.000  Ca
  Ca64     1.0000 0.16678  0.06231  0.55565  Biso   1.000  Ca
  Ca65     1.0000 0.22006  0.09338  0.56941  Biso   1.000  Ca
  P37      1.0000 0.24636  0.09338  0.59725  Biso   1.000  P 
  O169     1.0000 0.10984  0.09338  0.55847  Biso   1.000  O 
  O170     1.0000 0.01963  0.09338  0.59978  Biso   1.000  O 
  Ca66     1.0000 0.12429  0.09338  0.58343  Biso   1.000  Ca
  P38      1.0000 0.07904  0.09338  0.58662  Biso   1.000  P 
  O171     1.0000 0.06700  0.09338  0.57141  Biso   1.000  O 
  O172     1.0000 0.06449  0.09338  0.60050  Biso   1.000  O 
  Ca67     1.0000 0.03099  0.09338  0.56834  Biso   1.000  Ca
  P39      1.0000 0.17495  0.09338  0.59151  Biso   1.000  P 
  O173     1.0000 0.19850  0.09338  0.59129  Biso   1.000  O 
  O174     1.0000 0.16622  0.09338  0.57511  Biso   1.000  O 
  Ca68     1.0000 0.15518  0.03089  0.59611  Biso   1.000  Ca
  P40      1.0000 0.12886  0.03089  0.56827  Biso   1.000  P 
  O175     1.0000 0.01539  0.03089  0.60705  Biso   1.000  O 
  O176     1.0000 0.10560  0.03089  0.56574  Biso   1.000  O 
  Ca69     1.0000 0.00093  0.03089  0.58208  Biso   1.000  Ca
  P41      1.0000 0.04619  0.03089  0.57890  Biso   1.000  P 
  O177     1.0000 0.05822  0.03089  0.59411  Biso   1.000  O 
  O178     1.0000 0.06073  0.03089  0.56502  Biso   1.000  O 
  Ca70     1.0000 0.09422  0.03089  0.59719  Biso   1.000  Ca
  P42      1.0000 0.20028  0.03089  0.57400  Biso   1.000  P 
  O179     1.0000 0.17672  0.03089  0.57423  Biso   1.000  O 
  O180     1.0000 0.20900  0.03089  0.59041  Biso   1.000  O 
  O181     1.0000 0.00011  0.02438  0.55565  Biso   1.000  O 
  O182     1.0000 0.00011  0.08687  0.55565  Biso   1.000  O 
  H13      1.0000 0.00011  0.00420  0.55565  Biso   1.000  H 
  H14      1.0000 0.00022  0.06669  0.55561  Biso   1.000  H 
  O183     1.0000 0.11442  0.11585  0.64248  Biso   1.000  O 
  O184     1.0000 0.21786  0.11585  0.64083  Biso   1.000  O 
  O185     1.0000 0.04305  0.11585  0.65473  Biso   1.000  O 
  O186     1.0000 0.01080  0.05335  0.63147  Biso   1.000  O 
  O187     1.0000 0.15736  0.05335  0.63313  Biso   1.000  O 
  O188     1.0000 0.08217  0.05335  0.61922  Biso   1.000  O 
  O189     1.0000 0.01080  0.00842  0.63147  Biso   1.000  O 
  O190     1.0000 0.15736  0.00842  0.63313  Biso   1.000  O 
  O191     1.0000 0.08217  0.00842  0.61922  Biso   1.000  O 
  O192     1.0000 0.11442  0.07093  0.64248  Biso   1.000  O 
  O193     1.0000 0.21786  0.07093  0.64083  Biso   1.000  O 
  O194     1.0000 0.04305  0.07093  0.65473  Biso   1.000  O 
  Ca71     1.0000 0.04178  0.12445  0.60986  Biso   1.000  Ca
  Ca72     1.0000 0.20844  0.06196  0.60987  Biso   1.000  Ca
  Ca73     1.0000 0.20844  0.12482  0.60987  Biso   1.000  Ca
  Ca74     1.0000 0.04178  0.06231  0.60986  Biso   1.000  Ca
  Ca75     1.0000 0.09506  0.09338  0.62363  Biso   1.000  Ca
  P43      1.0000 0.12136  0.09338  0.65147  Biso   1.000  P 
  O195     1.0000 0.23484  0.09338  0.61269  Biso   1.000  O 
  O196     1.0000 0.14463  0.09338  0.65400  Biso   1.000  O 
  Ca76     1.0000 0.24929  0.09338  0.63765  Biso   1.000  Ca
  P44      1.0000 0.20404  0.09338  0.64084  Biso   1.000  P 
  O197     1.0000 0.19200  0.09338  0.62563  Biso   1.000  O 
  O198     1.0000 0.18949  0.09338  0.65471  Biso   1.000  O 
  Ca77     1.0000 0.15599  0.09338  0.62255  Biso   1.000  Ca
  P45      1.0000 0.04995  0.09338  0.64573  Biso   1.000  P 
  O199     1.0000 0.07350  0.09338  0.64551  Biso   1.000  O 
  O200     1.0000 0.04122  0.09338  0.62933  Biso   1.000  O 
  Ca78     1.0000 0.03018  0.03089  0.65033  Biso   1.000  Ca
  P46      1.0000 0.00386  0.03089  0.62248  Biso   1.000  P 
  O201     1.0000 0.14039  0.03089  0.66127  Biso   1.000  O 
  O202     1.0000 0.23060  0.03089  0.61996  Biso   1.000  O 
  Ca79     1.0000 0.12593  0.03089  0.63630  Biso   1.000  Ca
  P47      1.0000 0.17119  0.03089  0.63312  Biso   1.000  P 
  O203     1.0000 0.18322  0.03089  0.64833  Biso   1.000  O 
  O204     1.0000 0.18573  0.03089  0.61924  Biso   1.000  O 
  Ca80     1.0000 0.21922  0.03089  0.65141  Biso   1.000  Ca
  P48      1.0000 0.07528  0.03089  0.62822  Biso   1.000  P 
  O205     1.0000 0.05172  0.03089  0.62845  Biso   1.000  O 
  O206     1.0000 0.08400  0.03089  0.64462  Biso   1.000  O 
  O207     1.0000 0.12511  0.02438  0.60987  Biso   1.000  O 
  O208     1.0000 0.12511  0.08687  0.60987  Biso   1.000  O 
  H15      1.0000 0.12511  0.00420  0.60987  Biso   1.000  H 
  H16      1.0000 0.12522  0.06669  0.60982  Biso   1.000  H 
  O209     1.0000 0.23942  0.11585  0.69670  Biso   1.000  O 
  O210     1.0000 0.09286  0.11585  0.69504  Biso   1.000  O 
  O211     1.0000 0.16805  0.11585  0.70895  Biso   1.000  O 
  O212     1.0000 0.13580  0.05335  0.68569  Biso   1.000  O 
  O213     1.0000 0.03236  0.05335  0.68734  Biso   1.000  O 
  O214     1.0000 0.20717  0.05335  0.67344  Biso   1.000  O 
  O215     1.0000 0.13580  0.00842  0.68569  Biso   1.000  O 
  O216     1.0000 0.03236  0.00842  0.68734  Biso   1.000  O 
  O217     1.0000 0.20717  0.00842  0.67344  Biso   1.000  O 
  O218     1.0000 0.23942  0.07093  0.69670  Biso   1.000  O 
  O219     1.0000 0.09286  0.07093  0.69504  Biso   1.000  O 
  O220     1.0000 0.16805  0.07093  0.70895  Biso   1.000  O 
  Ca81     1.0000 0.16678  0.12445  0.66408  Biso   1.000  Ca
  Ca82     1.0000 0.08344  0.06196  0.66409  Biso   1.000  Ca
  Ca83     1.0000 0.08344  0.12482  0.66409  Biso   1.000  Ca
  Ca84     1.0000 0.16678  0.06231  0.66408  Biso   1.000  Ca
  Ca85     1.0000 0.22006  0.09338  0.67784  Biso   1.000  Ca
  P49      1.0000 0.24636  0.09338  0.70569  Biso   1.000  P 
  O221     1.0000 0.10984  0.09338  0.66691  Biso   1.000  O 
  O222     1.0000 0.01963  0.09338  0.70822  Biso   1.000  O 
  Ca86     1.0000 0.12429  0.09338  0.69187  Biso   1.000  Ca
  P50      1.0000 0.07904  0.09338  0.69506  Biso   1.000  P 
  O223     1.0000 0.06700  0.09338  0.67985  Biso   1.000  O 
  O224     1.0000 0.06449  0.09338  0.70893  Biso   1.000  O 
  Ca87     1.0000 0.03099  0.09338  0.67677  Biso   1.000  Ca
  P51      1.0000 0.17495  0.09338  0.69995  Biso   1.000  P 
  O225     1.0000 0.19850  0.09338  0.69973  Biso   1.000  O 
  O226     1.0000 0.16622  0.09338  0.68355  Biso   1.000  O 
  Ca88     1.0000 0.15518  0.03089  0.70455  Biso   1.000  Ca
  P52      1.0000 0.12886  0.03089  0.67670  Biso   1.000  P 
  O227     1.0000 0.01539  0.03089  0.71548  Biso   1.000  O 
  O228     1.0000 0.10560  0.03089  0.67418  Biso   1.000  O 
  Ca89     1.0000 0.00093  0.03089  0.69052  Biso   1.000  Ca
  P53      1.0000 0.04619  0.03089  0.68733  Biso   1.000  P 
  O229     1.0000 0.05822  0.03089  0.70255  Biso   1.000  O 
  O230     1.0000 0.06073  0.03089  0.67346  Biso   1.000  O 
  Ca90     1.0000 0.09422  0.03089  0.70563  Biso   1.000  Ca
  P54      1.0000 0.20028  0.03089  0.68244  Biso   1.000  P 
  O231     1.0000 0.17672  0.03089  0.68266  Biso   1.000  O 
  O232     1.0000 0.20900  0.03089  0.69884  Biso   1.000  O 
  O233     1.0000 0.00011  0.02438  0.66409  Biso   1.000  O 
  O234     1.0000 0.00011  0.08687  0.66409  Biso   1.000  O 
  H17      1.0000 0.00011  0.00420  0.66409  Biso   1.000  H 
  H18      1.0000 0.00022  0.06669  0.66404  Biso   1.000  H 
  O235     1.0000 0.11442  0.11585  0.75091  Biso   1.000  O 
  O236     1.0000 0.21786  0.11585  0.74926  Biso   1.000  O 
  O237     1.0000 0.04305  0.11585  0.76317  Biso   1.000  O 
  O238     1.0000 0.01080  0.05335  0.73991  Biso   1.000  O 
  O239     1.0000 0.15736  0.05335  0.74156  Biso   1.000  O 
  O240     1.0000 0.08217  0.05335  0.72766  Biso   1.000  O 
  O241     1.0000 0.01080  0.00842  0.73991  Biso   1.000  O 
  O242     1.0000 0.15736  0.00842  0.74156  Biso   1.000  O 
  O243     1.0000 0.08217  0.00842  0.72766  Biso   1.000  O 
  O244     1.0000 0.11442  0.07093  0.75091  Biso   1.000  O 
  O245     1.0000 0.21786  0.07093  0.74926  Biso   1.000  O 
  O246     1.0000 0.04305  0.07093  0.76317  Biso   1.000  O 
  Ca91     1.0000 0.04178  0.12445  0.71830  Biso   1.000  Ca
  Ca92     1.0000 0.20844  0.06196  0.71831  Biso   1.000  Ca
  Ca93     1.0000 0.20844  0.12482  0.71831  Biso   1.000  Ca
  Ca94     1.0000 0.04178  0.06231  0.71830  Biso   1.000  Ca
  Ca95     1.0000 0.09506  0.09338  0.73206  Biso   1.000  Ca
  P55      1.0000 0.12136  0.09338  0.75990  Biso   1.000  P 
  O247     1.0000 0.23484  0.09338  0.72113  Biso   1.000  O 
  O248     1.0000 0.14463  0.09338  0.76243  Biso   1.000  O 
  Ca96     1.0000 0.24929  0.09338  0.74609  Biso   1.000  Ca
  P56      1.0000 0.20404  0.09338  0.74928  Biso   1.000  P 
  O249     1.0000 0.19200  0.09338  0.73407  Biso   1.000  O 
  O250     1.0000 0.18949  0.09338  0.76315  Biso   1.000  O 
  Ca97     1.0000 0.15599  0.09338  0.73099  Biso   1.000  Ca
  P57      1.0000 0.04995  0.09338  0.75417  Biso   1.000  P 
  O251     1.0000 0.07350  0.09338  0.75394  Biso   1.000  O 
  O252     1.0000 0.04122  0.09338  0.73776  Biso   1.000  O 
  Ca98     1.0000 0.03018  0.03089  0.75877  Biso   1.000  Ca
  P58      1.0000 0.00386  0.03089  0.73092  Biso   1.000  P 
  O253     1.0000 0.14039  0.03089  0.76970  Biso   1.000  O 
  O254     1.0000 0.23060  0.03089  0.72840  Biso   1.000  O 
  Ca99     1.0000 0.12593  0.03089  0.74474  Biso   1.000  Ca
  P59      1.0000 0.17119  0.03089  0.74155  Biso   1.000  P 
  O255     1.0000 0.18322  0.03089  0.75677  Biso   1.000  O 
  O256     1.0000 0.18573  0.03089  0.72767  Biso   1.000  O 
  Ca100    1.0000 0.21922  0.03089  0.75984  Biso   1.000  Ca
  P60      1.0000 0.07528  0.03089  0.73666  Biso   1.000  P 
  O257     1.0000 0.05172  0.03089  0.73688  Biso   1.000  O 
  O258     1.0000 0.08400  0.03089  0.75306  Biso   1.000  O 
  O259     1.0000 0.12511  0.02438  0.71831  Biso   1.000  O 
  O260     1.0000 0.12511  0.08687  0.71831  Biso   1.000  O 
  H19      1.0000 0.12511  0.00420  0.71831  Biso   1.000  H 
  H20      1.0000 0.12522  0.06669  0.71826  Biso   1.000  H 
  O261     1.0000 0.23942  0.24085  0.26295  Biso   1.000  O 
  O262     1.0000 0.09286  0.24085  0.26130  Biso   1.000  O 
  O263     1.0000 0.16805  0.24085  0.27520  Biso   1.000  O 
  O264     1.0000 0.13580  0.17835  0.25195  Biso   1.000  O 
  O265     1.0000 0.03236  0.17835  0.25360  Biso   1.000  O 
  O266     1.0000 0.20717  0.17835  0.23970  Biso   1.000  O 
  O267     1.0000 0.13580  0.13342  0.25195  Biso   1.000  O 
  O268     1.0000 0.03236  0.13342  0.25360  Biso   1.000  O 
  O269     1.0000 0.20717  0.13342  0.23970  Biso   1.000  O 
  O270     1.0000 0.23942  0.19593  0.26295  Biso   1.000  O 
  O271     1.0000 0.09286  0.19593  0.26130  Biso   1.000  O 
  O272     1.0000 0.16805  0.19593  0.27520  Biso   1.000  O 
  Ca101    1.0000 0.16678  0.24945  0.23034  Biso   1.000  Ca
  Ca102    1.0000 0.08344  0.18696  0.23035  Biso   1.000  Ca
  Ca103    1.0000 0.08344  0.24982  0.23035  Biso   1.000  Ca
  Ca104    1.0000 0.16678  0.18731  0.23034  Biso   1.000  Ca
  Ca105    1.0000 0.22006  0.21838  0.24410  Biso   1.000  Ca
  P61      1.0000 0.24636  0.21838  0.27194  Biso   1.000  P 
  O273     1.0000 0.10984  0.21838  0.23317  Biso   1.000  O 
  O274     1.0000 0.01963  0.21838  0.27447  Biso   1.000  O 
  Ca106    1.0000 0.12429  0.21838  0.25813  Biso   1.000  Ca
  P62      1.0000 0.07904  0.21838  0.26132  Biso   1.000  P 
  O275     1.0000 0.06700  0.21838  0.24611  Biso   1.000  O 
  O276     1.0000 0.06449  0.21838  0.27519  Biso   1.000  O 
  Ca107    1.0000 0.03099  0.21838  0.24303  Biso   1.000  Ca
  P63      1.0000 0.17495  0.21838  0.26620  Biso   1.000  P 
  O277     1.0000 0.19850  0.21838  0.26598  Biso   1.000  O 
  O278     1.0000 0.16622  0.21838  0.24980  Biso   1.000  O 
  Ca108    1.0000 0.15518  0.15589  0.27081  Biso   1.000  Ca
  P64      1.0000 0.12886  0.15589  0.24296  Biso   1.000  P 
  O279     1.0000 0.01539  0.15589  0.28174  Biso   1.000  O 
  O280     1.0000 0.10560  0.15589  0.24043  Biso   1.000  O 
  Ca109    1.0000 0.00093  0.15589  0.25677  Biso   1.000  Ca
  P65      1.0000 0.04619  0.15589  0.25359  Biso   1.000  P 
  O281     1.0000 0.05822  0.15589  0.26880  Biso   1.000  O 
  O282     1.0000 0.06073  0.15589  0.23971  Biso   1.000  O 
  Ca110    1.0000 0.09422  0.15589  0.27188  Biso   1.000  Ca
  P66      1.0000 0.20028  0.15589  0.24870  Biso   1.000  P 
  O283     1.0000 0.17672  0.15589  0.24892  Biso   1.000  O 
  O284     1.0000 0.20900  0.15589  0.26510  Biso   1.000  O 
  O285     1.0000 0.00011  0.14938  0.23034  Biso   1.000  O 
  O286     1.0000 0.00011  0.21187  0.23034  Biso   1.000  O 
  H21      1.0000 0.00011  0.12920  0.23034  Biso   1.000  H 
  H22      1.0000 0.00022  0.19169  0.23030  Biso   1.000  H 
  O287     1.0000 0.11442  0.24085  0.31717  Biso   1.000  O 
  O288     1.0000 0.21786  0.24085  0.31552  Biso   1.000  O 
  O289     1.0000 0.04305  0.24085  0.32942  Biso   1.000  O 
  O290     1.0000 0.01080  0.17835  0.30617  Biso   1.000  O 
  O291     1.0000 0.15736  0.17835  0.30782  Biso   1.000  O 
  O292     1.0000 0.08217  0.17835  0.29391  Biso   1.000  O 
  O293     1.0000 0.01080  0.13342  0.30617  Biso   1.000  O 
  O294     1.0000 0.15736  0.13342  0.30782  Biso   1.000  O 
  O295     1.0000 0.08217  0.13342  0.29391  Biso   1.000  O 
  O296     1.0000 0.11442  0.19593  0.31717  Biso   1.000  O 
  O297     1.0000 0.21786  0.19593  0.31552  Biso   1.000  O 
  O298     1.0000 0.04305  0.19593  0.32942  Biso   1.000  O 
  Ca111    1.0000 0.04178  0.24945  0.28456  Biso   1.000  Ca
  Ca112    1.0000 0.20844  0.18696  0.28456  Biso   1.000  Ca
  Ca113    1.0000 0.20844  0.24982  0.28456  Biso   1.000  Ca
  Ca114    1.0000 0.04178  0.18731  0.28456  Biso   1.000  Ca
  Ca115    1.0000 0.09506  0.21838  0.29832  Biso   1.000  Ca
  P67      1.0000 0.12136  0.21838  0.32616  Biso   1.000  P 
  O299     1.0000 0.23484  0.21838  0.28738  Biso   1.000  O 
  O300     1.0000 0.14463  0.21838  0.32869  Biso   1.000  O 
  Ca116    1.0000 0.24929  0.21838  0.31234  Biso   1.000  Ca
  P68      1.0000 0.20404  0.21838  0.31554  Biso   1.000  P 
  O301     1.0000 0.19200  0.21838  0.30033  Biso   1.000  O 
  O302     1.0000 0.18949  0.21838  0.32941  Biso   1.000  O 
  Ca117    1.0000 0.15599  0.21838  0.29725  Biso   1.000  Ca
  P69      1.0000 0.04995  0.21838  0.32042  Biso   1.000  P 
  O303     1.0000 0.07350  0.21838  0.32020  Biso   1.000  O 
  O304     1.0000 0.04122  0.21838  0.30402  Biso   1.000  O 
  Ca118    1.0000 0.03018  0.15589  0.32502  Biso   1.000  Ca
  P70      1.0000 0.00386  0.15589  0.29718  Biso   1.000  P 
  O305     1.0000 0.14039  0.15589  0.33596  Biso   1.000  O 
  O306     1.0000 0.23060  0.15589  0.29465  Biso   1.000  O 
  Ca119    1.0000 0.12593  0.15589  0.31099  Biso   1.000  Ca
  P71      1.0000 0.17119  0.15589  0.30781  Biso   1.000  P 
  O307     1.0000 0.18322  0.15589  0.32302  Biso   1.000  O 
  O308     1.0000 0.18573  0.15589  0.29393  Biso   1.000  O 
  Ca120    1.0000 0.21922  0.15589  0.32610  Biso   1.000  Ca
  P72      1.0000 0.07528  0.15589  0.30291  Biso   1.000  P 
  O309     1.0000 0.05172  0.15589  0.30314  Biso   1.000  O 
  O310     1.0000 0.08400  0.15589  0.31932  Biso   1.000  O 
  O311     1.0000 0.12511  0.14938  0.28456  Biso   1.000  O 
  O312     1.0000 0.12511  0.21187  0.28456  Biso   1.000  O 
  H23      1.0000 0.12511  0.12920  0.28456  Biso   1.000  H 
  H24      1.0000 0.12522  0.19169  0.28452  Biso   1.000  H 
  O313     1.0000 0.23942  0.24085  0.37139  Biso   1.000  O 
  O314     1.0000 0.09286  0.24085  0.36974  Biso   1.000  O 
  O315     1.0000 0.16805  0.24085  0.38364  Biso   1.000  O 
  O316     1.0000 0.13580  0.17835  0.36038  Biso   1.000  O 
  O317     1.0000 0.03236  0.17835  0.36204  Biso   1.000  O 
  O318     1.0000 0.20717  0.17835  0.34813  Biso   1.000  O 
  O319     1.0000 0.13580  0.13342  0.36038  Biso   1.000  O 
  O320     1.0000 0.03236  0.13342  0.36204  Biso   1.000  O 
  O321     1.0000 0.20717  0.13342  0.34813  Biso   1.000  O 
  O322     1.0000 0.23942  0.19593  0.37139  Biso   1.000  O 
  O323     1.0000 0.09286  0.19593  0.36974  Biso   1.000  O 
  O324     1.0000 0.16805  0.19593  0.38364  Biso   1.000  O 
  Ca121    1.0000 0.16678  0.24945  0.33877  Biso   1.000  Ca
  Ca122    1.0000 0.08344  0.18696  0.33878  Biso   1.000  Ca
  Ca123    1.0000 0.08344  0.24982  0.33878  Biso   1.000  Ca
  Ca124    1.0000 0.16678  0.18731  0.33877  Biso   1.000  Ca
  Ca125    1.0000 0.22006  0.21838  0.35254  Biso   1.000  Ca
  P73      1.0000 0.24636  0.21838  0.38038  Biso   1.000  P 
  O325     1.0000 0.10984  0.21838  0.34160  Biso   1.000  O 
  O326     1.0000 0.01963  0.21838  0.38291  Biso   1.000  O 
  Ca126    1.0000 0.12429  0.21838  0.36656  Biso   1.000  Ca
  P74      1.0000 0.07904  0.21838  0.36975  Biso   1.000  P 
  O327     1.0000 0.06700  0.21838  0.35454  Biso   1.000  O 
  O328     1.0000 0.06449  0.21838  0.38362  Biso   1.000  O 
  Ca127    1.0000 0.03099  0.21838  0.35146  Biso   1.000  Ca
  P75      1.0000 0.17495  0.21838  0.37464  Biso   1.000  P 
  O329     1.0000 0.19850  0.21838  0.37442  Biso   1.000  O 
  O330     1.0000 0.16622  0.21838  0.35824  Biso   1.000  O 
  Ca128    1.0000 0.15518  0.15589  0.37924  Biso   1.000  Ca
  P76      1.0000 0.12886  0.15589  0.35140  Biso   1.000  P 
  O331     1.0000 0.01539  0.15589  0.39018  Biso   1.000  O 
  O332     1.0000 0.10560  0.15589  0.34887  Biso   1.000  O 
  Ca129    1.0000 0.00093  0.15589  0.36521  Biso   1.000  Ca
  P77      1.0000 0.04619  0.15589  0.36203  Biso   1.000  P 
  O333     1.0000 0.05822  0.15589  0.37724  Biso   1.000  O 
  O334     1.0000 0.06073  0.15589  0.34815  Biso   1.000  O 
  Ca130    1.0000 0.09422  0.15589  0.38032  Biso   1.000  Ca
  P78      1.0000 0.20028  0.15589  0.35713  Biso   1.000  P 
  O335     1.0000 0.17672  0.15589  0.35736  Biso   1.000  O 
  O336     1.0000 0.20900  0.15589  0.37353  Biso   1.000  O 
  O337     1.0000 0.00011  0.14938  0.33878  Biso   1.000  O 
  O338     1.0000 0.00011  0.21187  0.33878  Biso   1.000  O 
  H25      1.0000 0.00011  0.12920  0.33878  Biso   1.000  H 
  H26      1.0000 0.00022  0.19169  0.33873  Biso   1.000  H 
  O339     1.0000 0.11442  0.24085  0.42561  Biso   1.000  O 
  O340     1.0000 0.21786  0.24085  0.42395  Biso   1.000  O 
  O341     1.0000 0.04305  0.24085  0.43786  Biso   1.000  O 
  O342     1.0000 0.01080  0.17835  0.41460  Biso   1.000  O 
  O343     1.0000 0.15736  0.17835  0.41625  Biso   1.000  O 
  O344     1.0000 0.08217  0.17835  0.40235  Biso   1.000  O 
  O345     1.0000 0.01080  0.13342  0.41460  Biso   1.000  O 
  O346     1.0000 0.15736  0.13342  0.41625  Biso   1.000  O 
  O347     1.0000 0.08217  0.13342  0.40235  Biso   1.000  O 
  O348     1.0000 0.11442  0.19593  0.42561  Biso   1.000  O 
  O349     1.0000 0.21786  0.19593  0.42395  Biso   1.000  O 
  O350     1.0000 0.04305  0.19593  0.43786  Biso   1.000  O 
  Ca131    1.0000 0.04178  0.24945  0.39299  Biso   1.000  Ca
  Ca132    1.0000 0.20844  0.18696  0.39300  Biso   1.000  Ca
  Ca133    1.0000 0.20844  0.24982  0.39300  Biso   1.000  Ca
  Ca134    1.0000 0.04178  0.18731  0.39299  Biso   1.000  Ca
  Ca135    1.0000 0.09506  0.21838  0.40675  Biso   1.000  Ca
  P79      1.0000 0.12136  0.21838  0.43460  Biso   1.000  P 
  O351     1.0000 0.23484  0.21838  0.39582  Biso   1.000  O 
  O352     1.0000 0.14463  0.21838  0.43713  Biso   1.000  O 
  Ca136    1.0000 0.24929  0.21838  0.42078  Biso   1.000  Ca
  P80      1.0000 0.20404  0.21838  0.42397  Biso   1.000  P 
  O353     1.0000 0.19200  0.21838  0.40876  Biso   1.000  O 
  O354     1.0000 0.18949  0.21838  0.43784  Biso   1.000  O 
  Ca137    1.0000 0.15599  0.21838  0.40568  Biso   1.000  Ca
  P81      1.0000 0.04995  0.21838  0.42886  Biso   1.000  P 
  O355     1.0000 0.07350  0.21838  0.42864  Biso   1.000  O 
  O356     1.0000 0.04122  0.21838  0.41246  Biso   1.000  O 
  Ca138    1.0000 0.03018  0.15589  0.43346  Biso   1.000  Ca
  P82      1.0000 0.00386  0.15589  0.40561  Biso   1.000  P 
  O357     1.0000 0.14039  0.15589  0.44439  Biso   1.000  O 
  O358     1.0000 0.23060  0.15589  0.40309  Biso   1.000  O 
  Ca139    1.0000 0.12593  0.15589  0.41943  Biso   1.000  Ca
  P83      1.0000 0.17119  0.15589  0.41624  Biso   1.000  P 
  O359     1.0000 0.18322  0.15589  0.43146  Biso   1.000  O 
  O360     1.0000 0.18573  0.15589  0.40237  Biso   1.000  O 
  Ca140    1.0000 0.21922  0.15589  0.43454  Biso   1.000  Ca
  P84      1.0000 0.07528  0.15589  0.41135  Biso   1.000  P 
  O361     1.0000 0.05172  0.15589  0.41157  Biso   1.000  O 
  O362     1.0000 0.08400  0.15589  0.42775  Biso   1.000  O 
  O363     1.0000 0.12511  0.14938  0.39300  Biso   1.000  O 
  O364     1.0000 0.12511  0.21187  0.39300  Biso   1.000  O 
  H27      1.0000 0.12511  0.12920  0.39300  Biso   1.000  H 
  H28      1.0000 0.12522  0.19169  0.39295  Biso   1.000  H 
  O365     1.0000 0.23942  0.24085  0.47982  Biso   1.000  O 
  O366     1.0000 0.09286  0.24085  0.47817  Biso   1.000  O 
  O367     1.0000 0.16805  0.24085  0.49208  Biso   1.000  O 
  O368     1.0000 0.13580  0.17835  0.46882  Biso   1.000  O 
  O369     1.0000 0.03236  0.17835  0.47047  Biso   1.000  O 
  O370     1.0000 0.20717  0.17835  0.45657  Biso   1.000  O 
  O371     1.0000 0.13580  0.13342  0.46882  Biso   1.000  O 
  O372     1.0000 0.03236  0.13342  0.47047  Biso   1.000  O 
  O373     1.0000 0.20717  0.13342  0.45657  Biso   1.000  O 
  O374     1.0000 0.23942  0.19593  0.47982  Biso   1.000  O 
  O375     1.0000 0.09286  0.19593  0.47817  Biso   1.000  O 
  O376     1.0000 0.16805  0.19593  0.49208  Biso   1.000  O 
  Ca141    1.0000 0.16678  0.24945  0.44721  Biso   1.000  Ca
  Ca142    1.0000 0.08344  0.18696  0.44722  Biso   1.000  Ca
  Ca143    1.0000 0.08344  0.24982  0.44722  Biso   1.000  Ca
  Ca144    1.0000 0.16678  0.18731  0.44721  Biso   1.000  Ca
  Ca145    1.0000 0.22006  0.21838  0.46097  Biso   1.000  Ca
  P85      1.0000 0.24636  0.21838  0.48881  Biso   1.000  P 
  O377     1.0000 0.10984  0.21838  0.45004  Biso   1.000  O 
  O378     1.0000 0.01963  0.21838  0.49134  Biso   1.000  O 
  Ca146    1.0000 0.12429  0.21838  0.47500  Biso   1.000  Ca
  P86      1.0000 0.07904  0.21838  0.47819  Biso   1.000  P 
  O379     1.0000 0.06700  0.21838  0.46298  Biso   1.000  O 
  O380     1.0000 0.06449  0.21838  0.49206  Biso   1.000  O 
  Ca147    1.0000 0.03099  0.21838  0.45990  Biso   1.000  Ca
  P87      1.0000 0.17495  0.21838  0.48308  Biso   1.000  P 
  O381     1.0000 0.19850  0.21838  0.48285  Biso   1.000  O 
  O382     1.0000 0.16622  0.21838  0.46667  Biso   1.000  O 
  Ca148    1.0000 0.15518  0.15589  0.48768  Biso   1.000  Ca
  P88      1.0000 0.12886  0.15589  0.45983  Biso   1.000  P 
  O383     1.0000 0.01539  0.15589  0.49861  Biso   1.000  O 
  O384     1.0000 0.10560  0.15589  0.45731  Biso   1.000  O 
  Ca149    1.0000 0.00093  0.15589  0.47365  Biso   1.000  Ca
  P89      1.0000 0.04619  0.15589  0.47046  Biso   1.000  P 
  O385     1.0000 0.05822  0.15589  0.48568  Biso   1.000  O 
  O386     1.0000 0.06073  0.15589  0.45658  Biso   1.000  O 
  Ca150    1.0000 0.09422  0.15589  0.48875  Biso   1.000  Ca
  P90      1.0000 0.20028  0.15589  0.46557  Biso   1.000  P 
  O387     1.0000 0.17672  0.15589  0.46579  Biso   1.000  O 
  O388     1.0000 0.20900  0.15589  0.48197  Biso   1.000  O 
  O389     1.0000 0.00011  0.14938  0.44722  Biso   1.000  O 
  O390     1.0000 0.00011  0.21187  0.44722  Biso   1.000  O 
  H29      1.0000 0.00011  0.12920  0.44722  Biso   1.000  H 
  H30      1.0000 0.00022  0.19169  0.44717  Biso   1.000  H 
  O391     1.0000 0.11442  0.24085  0.53404  Biso   1.000  O 
  O392     1.0000 0.21786  0.24085  0.53239  Biso   1.000  O 
  O393     1.0000 0.04305  0.24085  0.54629  Biso   1.000  O 
  O394     1.0000 0.01080  0.17835  0.52304  Biso   1.000  O 
  O395     1.0000 0.15736  0.17835  0.52469  Biso   1.000  O 
  O396     1.0000 0.08217  0.17835  0.51079  Biso   1.000  O 
  O397     1.0000 0.01080  0.13342  0.52304  Biso   1.000  O 
  O398     1.0000 0.15736  0.13342  0.52469  Biso   1.000  O 
  O399     1.0000 0.08217  0.13342  0.51079  Biso   1.000  O 
  O400     1.0000 0.11442  0.19593  0.53404  Biso   1.000  O 
  O401     1.0000 0.21786  0.19593  0.53239  Biso   1.000  O 
  O402     1.0000 0.04305  0.19593  0.54629  Biso   1.000  O 
  Ca151    1.0000 0.04178  0.24945  0.50143  Biso   1.000  Ca
  Ca152    1.0000 0.20844  0.18696  0.50144  Biso   1.000  Ca
  Ca153    1.0000 0.20844  0.24982  0.50144  Biso   1.000  Ca
  Ca154    1.0000 0.04178  0.18731  0.50143  Biso   1.000  Ca
  Ca155    1.0000 0.09506  0.21838  0.51519  Biso   1.000  Ca
  P91      1.0000 0.12136  0.21838  0.54303  Biso   1.000  P 
  O403     1.0000 0.23484  0.21838  0.50426  Biso   1.000  O 
  O404     1.0000 0.14463  0.21838  0.54556  Biso   1.000  O 
  Ca156    1.0000 0.24929  0.21838  0.52922  Biso   1.000  Ca
  P92      1.0000 0.20404  0.21838  0.53241  Biso   1.000  P 
  O405     1.0000 0.19200  0.21838  0.51720  Biso   1.000  O 
  O406     1.0000 0.18949  0.21838  0.54628  Biso   1.000  O 
  Ca157    1.0000 0.15599  0.21838  0.51412  Biso   1.000  Ca
  P93      1.0000 0.04995  0.21838  0.53729  Biso   1.000  P 
  O407     1.0000 0.07350  0.21838  0.53707  Biso   1.000  O 
  O408     1.0000 0.04122  0.21838  0.52089  Biso   1.000  O 
  Ca158    1.0000 0.03018  0.15589  0.54190  Biso   1.000  Ca
  P94      1.0000 0.00386  0.15589  0.51405  Biso   1.000  P 
  O409     1.0000 0.14039  0.15589  0.55283  Biso   1.000  O 
  O410     1.0000 0.23060  0.15589  0.51152  Biso   1.000  O 
  Ca159    1.0000 0.12593  0.15589  0.52786  Biso   1.000  Ca
  P95      1.0000 0.17119  0.15589  0.52468  Biso   1.000  P 
  O411     1.0000 0.18322  0.15589  0.53989  Biso   1.000  O 
  O412     1.0000 0.18573  0.15589  0.51080  Biso   1.000  O 
  Ca160    1.0000 0.21922  0.15589  0.54297  Biso   1.000  Ca
  P96      1.0000 0.07528  0.15589  0.51979  Biso   1.000  P 
  O413     1.0000 0.05172  0.15589  0.52001  Biso   1.000  O 
  O414     1.0000 0.08400  0.15589  0.53619  Biso   1.000  O 
  O415     1.0000 0.12511  0.14938  0.50143  Biso   1.000  O 
  O416     1.0000 0.12511  0.21187  0.50143  Biso   1.000  O 
  H31      1.0000 0.12511  0.12920  0.50143  Biso   1.000  H 
  H32      1.0000 0.12522  0.19169  0.50139  Biso   1.000  H 
  O417     1.0000 0.23942  0.24085  0.58826  Biso   1.000  O 
  O418     1.0000 0.09286  0.24085  0.58661  Biso   1.000  O 
  O419     1.0000 0.16805  0.24085  0.60051  Biso   1.000  O 
  O420     1.0000 0.13580  0.17835  0.57726  Biso   1.000  O 
  O421     1.0000 0.03236  0.17835  0.57891  Biso   1.000  O 
  O422     1.0000 0.20717  0.17835  0.56500  Biso   1.000  O 
  O423     1.0000 0.13580  0.13342  0.57726  Biso   1.000  O 
  O424     1.0000 0.03236  0.13342  0.57891  Biso   1.000  O 
  O425     1.0000 0.20717  0.13342  0.56500  Biso   1.000  O 
  O426     1.0000 0.23942  0.19593  0.58826  Biso   1.000  O 
  O427     1.0000 0.09286  0.19593  0.58661  Biso   1.000  O 
  O428     1.0000 0.16805  0.19593  0.60051  Biso   1.000  O 
  Ca161    1.0000 0.16678  0.24945  0.55565  Biso   1.000  Ca
  Ca162    1.0000 0.08344  0.18696  0.55565  Biso   1.000  Ca
  Ca163    1.0000 0.08344  0.24982  0.55565  Biso   1.000  Ca
  Ca164    1.0000 0.16678  0.18731  0.55565  Biso   1.000  Ca
  Ca165    1.0000 0.22006  0.21838  0.56941  Biso   1.000  Ca
  P97      1.0000 0.24636  0.21838  0.59725  Biso   1.000  P 
  O429     1.0000 0.10984  0.21838  0.55847  Biso   1.000  O 
  O430     1.0000 0.01963  0.21838  0.59978  Biso   1.000  O 
  Ca166    1.0000 0.12429  0.21838  0.58343  Biso   1.000  Ca
  P98      1.0000 0.07904  0.21838  0.58662  Biso   1.000  P 
  O431     1.0000 0.06700  0.21838  0.57141  Biso   1.000  O 
  O432     1.0000 0.06449  0.21838  0.60050  Biso   1.000  O 
  Ca167    1.0000 0.03099  0.21838  0.56834  Biso   1.000  Ca
  P99      1.0000 0.17495  0.21838  0.59151  Biso   1.000  P 
  O433     1.0000 0.19850  0.21838  0.59129  Biso   1.000  O 
  O434     1.0000 0.16622  0.21838  0.57511  Biso   1.000  O 
  Ca168    1.0000 0.15518  0.15589  0.59611  Biso   1.000  Ca
  P100     1.0000 0.12886  0.15589  0.56827  Biso   1.000  P 
  O435     1.0000 0.01539  0.15589  0.60705  Biso   1.000  O 
  O436     1.0000 0.10560  0.15589  0.56574  Biso   1.000  O 
  Ca169    1.0000 0.00093  0.15589  0.58208  Biso   1.000  Ca
  P101     1.0000 0.04619  0.15589  0.57890  Biso   1.000  P 
  O437     1.0000 0.05822  0.15589  0.59411  Biso   1.000  O 
  O438     1.0000 0.06073  0.15589  0.56502  Biso   1.000  O 
  Ca170    1.0000 0.09422  0.15589  0.59719  Biso   1.000  Ca
  P102     1.0000 0.20028  0.15589  0.57400  Biso   1.000  P 
  O439     1.0000 0.17672  0.15589  0.57423  Biso   1.000  O 
  O440     1.0000 0.20900  0.15589  0.59041  Biso   1.000  O 
  O441     1.0000 0.00011  0.14938  0.55565  Biso   1.000  O 
  O442     1.0000 0.00011  0.21187  0.55565  Biso   1.000  O 
  H33      1.0000 0.00011  0.12920  0.55565  Biso   1.000  H 
  H34      1.0000 0.00022  0.19169  0.55561  Biso   1.000  H 
  O443     1.0000 0.11442  0.24085  0.64248  Biso   1.000  O 
  O444     1.0000 0.21786  0.24085  0.64083  Biso   1.000  O 
  O445     1.0000 0.04305  0.24085  0.65473  Biso   1.000  O 
  O446     1.0000 0.01080  0.17835  0.63147  Biso   1.000  O 
  O447     1.0000 0.15736  0.17835  0.63313  Biso   1.000  O 
  O448     1.0000 0.08217  0.17835  0.61922  Biso   1.000  O 
  O449     1.0000 0.01080  0.13342  0.63147  Biso   1.000  O 
  O450     1.0000 0.15736  0.13342  0.63313  Biso   1.000  O 
  O451     1.0000 0.08217  0.13342  0.61922  Biso   1.000  O 
  O452     1.0000 0.11442  0.19593  0.64248  Biso   1.000  O 
  O453     1.0000 0.21786  0.19593  0.64083  Biso   1.000  O 
  O454     1.0000 0.04305  0.19593  0.65473  Biso   1.000  O 
  Ca171    1.0000 0.04178  0.24945  0.60986  Biso   1.000  Ca
  Ca172    1.0000 0.20844  0.18696  0.60987  Biso   1.000  Ca
  Ca173    1.0000 0.20844  0.24982  0.60987  Biso   1.000  Ca
  Ca174    1.0000 0.04178  0.18731  0.60986  Biso   1.000  Ca
  Ca175    1.0000 0.09506  0.21838  0.62363  Biso   1.000  Ca
  P103     1.0000 0.12136  0.21838  0.65147  Biso   1.000  P 
  O455     1.0000 0.23484  0.21838  0.61269  Biso   1.000  O 
  O456     1.0000 0.14463  0.21838  0.65400  Biso   1.000  O 
  Ca176    1.0000 0.24929  0.21838  0.63765  Biso   1.000  Ca
  P104     1.0000 0.20404  0.21838  0.64084  Biso   1.000  P 
  O457     1.0000 0.19200  0.21838  0.62563  Biso   1.000  O 
  O458     1.0000 0.18949  0.21838  0.65471  Biso   1.000  O 
  Ca177    1.0000 0.15599  0.21838  0.62255  Biso   1.000  Ca
  P105     1.0000 0.04995  0.21838  0.64573  Biso   1.000  P 
  O459     1.0000 0.07350  0.21838  0.64551  Biso   1.000  O 
  O460     1.0000 0.04122  0.21838  0.62933  Biso   1.000  O 
  Ca178    1.0000 0.03018  0.15589  0.65033  Biso   1.000  Ca
  P106     1.0000 0.00386  0.15589  0.62248  Biso   1.000  P 
  O461     1.0000 0.14039  0.15589  0.66127  Biso   1.000  O 
  O462     1.0000 0.23060  0.15589  0.61996  Biso   1.000  O 
  Ca179    1.0000 0.12593  0.15589  0.63630  Biso   1.000  Ca
  P107     1.0000 0.17119  0.15589  0.63312  Biso   1.000  P 
  O463     1.0000 0.18322  0.15589  0.64833  Biso   1.000  O 
  O464     1.0000 0.18573  0.15589  0.61924  Biso   1.000  O 
  Ca180    1.0000 0.21922  0.15589  0.65141  Biso   1.000  Ca
  P108     1.0000 0.07528  0.15589  0.62822  Biso   1.000  P 
  O465     1.0000 0.05172  0.15589  0.62845  Biso   1.000  O 
  O466     1.0000 0.08400  0.15589  0.64462  Biso   1.000  O 
  O467     1.0000 0.12511  0.14938  0.60987  Biso   1.000  O 
  O468     1.0000 0.12511  0.21187  0.60987  Biso   1.000  O 
  H35      1.0000 0.12511  0.12920  0.60987  Biso   1.000  H 
  H36      1.0000 0.12522  0.19169  0.60982  Biso   1.000  H 
  O469     1.0000 0.23942  0.24085  0.69670  Biso   1.000  O 
  O470     1.0000 0.09286  0.24085  0.69504  Biso   1.000  O 
  O471     1.0000 0.16805  0.24085  0.70895  Biso   1.000  O 
  O472     1.0000 0.13580  0.17835  0.68569  Biso   1.000  O 
  O473     1.0000 0.03236  0.17835  0.68734  Biso   1.000  O 
  O474     1.0000 0.20717  0.17835  0.67344  Biso   1.000  O 
  O475     1.0000 0.13580  0.13342  0.68569  Biso   1.000  O 
  O476     1.0000 0.03236  0.13342  0.68734  Biso   1.000  O 
  O477     1.0000 0.20717  0.13342  0.67344  Biso   1.000  O 
  O478     1.0000 0.23942  0.19593  0.69670  Biso   1.000  O 
  O479     1.0000 0.09286  0.19593  0.69504  Biso   1.000  O 
  O480     1.0000 0.16805  0.19593  0.70895  Biso   1.000  O 
  Ca181    1.0000 0.16678  0.24945  0.66408  Biso   1.000  Ca
  Ca182    1.0000 0.08344  0.18696  0.66409  Biso   1.000  Ca
  Ca183    1.0000 0.08344  0.24982  0.66409  Biso   1.000  Ca
  Ca184    1.0000 0.16678  0.18731  0.66408  Biso   1.000  Ca
  Ca185    1.0000 0.22006  0.21838  0.67784  Biso   1.000  Ca
  P109     1.0000 0.24636  0.21838  0.70569  Biso   1.000  P 
  O481     1.0000 0.10984  0.21838  0.66691  Biso   1.000  O 
  O482     1.0000 0.01963  0.21838  0.70822  Biso   1.000  O 
  Ca186    1.0000 0.12429  0.21838  0.69187  Biso   1.000  Ca
  P110     1.0000 0.07904  0.21838  0.69506  Biso   1.000  P 
  O483     1.0000 0.06700  0.21838  0.67985  Biso   1.000  O 
  O484     1.0000 0.06449  0.21838  0.70893  Biso   1.000  O 
  Ca187    1.0000 0.03099  0.21838  0.67677  Biso   1.000  Ca
  P111     1.0000 0.17495  0.21838  0.69995  Biso   1.000  P 
  O485     1.0000 0.19850  0.21838  0.69973  Biso   1.000  O 
  O486     1.0000 0.16622  0.21838  0.68355  Biso   1.000  O 
  Ca188    1.0000 0.15518  0.15589  0.70455  Biso   1.000  Ca
  P112     1.0000 0.12886  0.15589  0.67670  Biso   1.000  P 
  O487     1.0000 0.01539  0.15589  0.71548  Biso   1.000  O 
  O488     1.0000 0.10560  0.15589  0.67418  Biso   1.000  O 
  Ca189    1.0000 0.00093  0.15589  0.69052  Biso   1.000  Ca
  P113     1.0000 0.04619  0.15589  0.68733  Biso   1.000  P 
  O489     1.0000 0.05822  0.15589  0.70255  Biso   1.000  O 
  O490     1.0000 0.06073  0.15589  0.67346  Biso   1.000  O 
  Ca190    1.0000 0.09422  0.15589  0.70563  Biso   1.000  Ca
  P114     1.0000 0.20028  0.15589  0.68244  Biso   1.000  P 
  O491     1.0000 0.17672  0.15589  0.68266  Biso   1.000  O 
  O492     1.0000 0.20900  0.15589  0.69884  Biso   1.000  O 
  O493     1.0000 0.00011  0.14938  0.66409  Biso   1.000  O 
  O494     1.0000 0.00011  0.21187  0.66409  Biso   1.000  O 
  H37      1.0000 0.00011  0.12920  0.66409  Biso   1.000  H 
  H38      1.0000 0.00022  0.19169  0.66404  Biso   1.000  H 
  O495     1.0000 0.11442  0.24085  0.75091  Biso   1.000  O 
  O496     1.0000 0.21786  0.24085  0.74926  Biso   1.000  O 
  O497     1.0000 0.04305  0.24085  0.76317  Biso   1.000  O 
  O498     1.0000 0.01080  0.17835  0.73991  Biso   1.000  O 
  O499     1.0000 0.15736  0.17835  0.74156  Biso   1.000  O 
  O500     1.0000 0.08217  0.17835  0.72766  Biso   1.000  O 
  O501     1.0000 0.01080  0.13342  0.73991  Biso   1.000  O 
  O502     1.0000 0.15736  0.13342  0.74156  Biso   1.000  O 
  O503     1.0000 0.08217  0.13342  0.72766  Biso   1.000  O 
  O504     1.0000 0.11442  0.19593  0.75091  Biso   1.000  O 
  O505     1.0000 0.21786  0.19593  0.74926  Biso   1.000  O 
  O506     1.0000 0.04305  0.19593  0.76317  Biso   1.000  O 
  Ca191    1.0000 0.04178  0.24945  0.71830  Biso   1.000  Ca
  Ca192    1.0000 0.20844  0.18696  0.71831  Biso   1.000  Ca
  Ca193    1.0000 0.20844  0.24982  0.71831  Biso   1.000  Ca
  Ca194    1.0000 0.04178  0.18731  0.71830  Biso   1.000  Ca
  Ca195    1.0000 0.09506  0.21838  0.73206  Biso   1.000  Ca
  P115     1.0000 0.12136  0.21838  0.75990  Biso   1.000  P 
  O507     1.0000 0.23484  0.21838  0.72113  Biso   1.000  O 
  O508     1.0000 0.14463  0.21838  0.76243  Biso   1.000  O 
  Ca196    1.0000 0.24929  0.21838  0.74609  Biso   1.000  Ca
  P116     1.0000 0.20404  0.21838  0.74928  Biso   1.000  P 
  O509     1.0000 0.19200  0.21838  0.73407  Biso   1.000  O 
  O510     1.0000 0.18949  0.21838  0.76315  Biso   1.000  O 
  Ca197    1.0000 0.15599  0.21838  0.73099  Biso   1.000  Ca
  P117     1.0000 0.04995  0.21838  0.75417  Biso   1.000  P 
  O511     1.0000 0.07350  0.21838  0.75394  Biso   1.000  O 
  O512     1.0000 0.04122  0.21838  0.73776  Biso   1.000  O 
  Ca198    1.0000 0.03018  0.15589  0.75877  Biso   1.000  Ca
  P118     1.0000 0.00386  0.15589  0.73092  Biso   1.000  P 
  O513     1.0000 0.14039  0.15589  0.76970  Biso   1.000  O 
  O514     1.0000 0.23060  0.15589  0.72840  Biso   1.000  O 
  Ca199    1.0000 0.12593  0.15589  0.74474  Biso   1.000  Ca
  P119     1.0000 0.17119  0.15589  0.74155  Biso   1.000  P 
  O515     1.0000 0.18322  0.15589  0.75677  Biso   1.000  O 
  O516     1.0000 0.18573  0.15589  0.72767  Biso   1.000  O 
  Ca200    1.0000 0.21922  0.15589  0.75984  Biso   1.000  Ca
  P120     1.0000 0.07528  0.15589  0.73666  Biso   1.000  P 
  O517     1.0000 0.05172  0.15589  0.73688  Biso   1.000  O 
  O518     1.0000 0.08400  0.15589  0.75306  Biso   1.000  O 
  O519     1.0000 0.12511  0.14938  0.71831  Biso   1.000  O 
  O520     1.0000 0.12511  0.21187  0.71831  Biso   1.000  O 
  H39      1.0000 0.12511  0.12920  0.71831  Biso   1.000  H 
  H40      1.0000 0.12522  0.19169  0.71826  Biso   1.000  H 
  O521     1.0000 0.23942  0.36585  0.26295  Biso   1.000  O 
  O522     1.0000 0.09286  0.36585  0.26130  Biso   1.000  O 
  O523     1.0000 0.16805  0.36585  0.27520  Biso   1.000  O 
  O524     1.0000 0.13580  0.30335  0.25195  Biso   1.000  O 
  O525     1.0000 0.03236  0.30335  0.25360  Biso   1.000  O 
  O526     1.0000 0.20717  0.30335  0.23970  Biso   1.000  O 
  O527     1.0000 0.13580  0.25842  0.25195  Biso   1.000  O 
  O528     1.0000 0.03236  0.25842  0.25360  Biso   1.000  O 
  O529     1.0000 0.20717  0.25842  0.23970  Biso   1.000  O 
  O530     1.0000 0.23942  0.32093  0.26295  Biso   1.000  O 
  O531     1.0000 0.09286  0.32093  0.26130  Biso   1.000  O 
  O532     1.0000 0.16805  0.32093  0.27520  Biso   1.000  O 
  Ca201    1.0000 0.16678  0.37445  0.23034  Biso   1.000  Ca
  Ca202    1.0000 0.08344  0.31196  0.23035  Biso   1.000  Ca
  Ca203    1.0000 0.08344  0.37482  0.23035  Biso   1.000  Ca
  Ca204    1.0000 0.16678  0.31231  0.23034  Biso   1.000  Ca
  Ca205    1.0000 0.22006  0.34338  0.24410  Biso   1.000  Ca
  P121     1.0000 0.24636  0.34338  0.27194  Biso   1.000  P 
  O533     1.0000 0.10984  0.34338  0.23317  Biso   1.000  O 
  O534     1.0000 0.01963  0.34338  0.27447  Biso   1.000  O 
  Ca206    1.0000 0.12429  0.34338  0.25813  Biso   1.000  Ca
  P122     1.0000 0.07904  0.34338  0.26132  Biso   1.000  P 
  O535     1.0000 0.06700  0.34338  0.24611  Biso   1.000  O 
  O536     1.0000 0.06449  0.34338  0.27519  Biso   1.000  O 
  Ca207    1.0000 0.03099  0.34338  0.24303  Biso   1.000  Ca
  P123     1.0000 0.17495  0.34338  0.26620  Biso   1.000  P 
  O537     1.0000 0.19850  0.34338  0.26598  Biso   1.000  O 
  O538     1.0000 0.16622  0.34338  0.24980  Biso   1.000  O 
  Ca208    1.0000 0.15518  0.28089  0.27081  Biso   1.000  Ca
  P124     1.0000 0.12886  0.28089  0.24296  Biso   1.000  P 
  O539     1.0000 0.01539  0.28089  0.28174  Biso   1.000  O 
  O540     1.0000 0.10560  0.28089  0.24043  Biso   1.000  O 
  Ca209    1.0000 0.00093  0.28089  0.25677  Biso   1.000  Ca
  P125     1.0000 0.04619  0.28089  0.25359  Biso   1.000  P 
  O541     1.0000 0.05822  0.28089  0.26880  Biso   1.000  O 
  O542     1.0000 0.06073  0.28089  0.23971  Biso   1.000  O 
  Ca210    1.0000 0.09422  0.28089  0.27188  Biso   1.000  Ca
  P126     1.0000 0.20028  0.28089  0.24870  Biso   1.000  P 
  O543     1.0000 0.17672  0.28089  0.24892  Biso   1.000  O 
  O544     1.0000 0.20900  0.28089  0.26510  Biso   1.000  O 
  O545     1.0000 0.00011  0.27438  0.23034  Biso   1.000  O 
  O546     1.0000 0.00011  0.33687  0.23034  Biso   1.000  O 
  H41      1.0000 0.00011  0.25420  0.23034  Biso   1.000  H 
  H42      1.0000 0.00022  0.31669  0.23030  Biso   1.000  H 
  O547     1.0000 0.11442  0.36585  0.31717  Biso   1.000  O 
  O548     1.0000 0.21786  0.36585  0.31552  Biso   1.000  O 
  O549     1.0000 0.04305  0.36585  0.32942  Biso   1.000  O 
  O550     1.0000 0.01080  0.30335  0.30617  Biso   1.000  O 
  O551     1.0000 0.15736  0.30335  0.30782  Biso   1.000  O 
  O552     1.0000 0.08217  0.30335  0.29391  Biso   1.000  O 
  O553     1.0000 0.01080  0.25842  0.30617  Biso   1.000  O 
  O554     1.0000 0.15736  0.25842  0.30782  Biso   1.000  O 
  O555     1.0000 0.08217  0.25842  0.29391  Biso   1.000  O 
  O556     1.0000 0.11442  0.32093  0.31717  Biso   1.000  O 
  O557     1.0000 0.21786  0.32093  0.31552  Biso   1.000  O 
  O558     1.0000 0.04305  0.32093  0.32942  Biso   1.000  O 
  Ca211    1.0000 0.04178  0.37445  0.28456  Biso   1.000  Ca
  Ca212    1.0000 0.20844  0.31196  0.28456  Biso   1.000  Ca
  Ca213    1.0000 0.20844  0.37482  0.28456  Biso   1.000  Ca
  Ca214    1.0000 0.04178  0.31231  0.28456  Biso   1.000  Ca
  Ca215    1.0000 0.09506  0.34338  0.29832  Biso   1.000  Ca
  P127     1.0000 0.12136  0.34338  0.32616  Biso   1.000  P 
  O559     1.0000 0.23484  0.34338  0.28738  Biso   1.000  O 
  O560     1.0000 0.14463  0.34338  0.32869  Biso   1.000  O 
  Ca216    1.0000 0.24929  0.34338  0.31234  Biso   1.000  Ca
  P128     1.0000 0.20404  0.34338  0.31554  Biso   1.000  P 
  O561     1.0000 0.19200  0.34338  0.30033  Biso   1.000  O 
  O562     1.0000 0.18949  0.34338  0.32941  Biso   1.000  O 
  Ca217    1.0000 0.15599  0.34338  0.29725  Biso   1.000  Ca
  P129     1.0000 0.04995  0.34338  0.32042  Biso   1.000  P 
  O563     1.0000 0.07350  0.34338  0.32020  Biso   1.000  O 
  O564     1.0000 0.04122  0.34338  0.30402  Biso   1.000  O 
  Ca218    1.0000 0.03018  0.28089  0.32502  Biso   1.000  Ca
  P130     1.0000 0.00386  0.28089  0.29718  Biso   1.000  P 
  O565     1.0000 0.14039  0.28089  0.33596  Biso   1.000  O 
  O566     1.0000 0.23060  0.28089  0.29465  Biso   1.000  O 
  Ca219    1.0000 0.12593  0.28089  0.31099  Biso   1.000  Ca
  P131     1.0000 0.17119  0.28089  0.30781  Biso   1.000  P 
  O567     1.0000 0.18322  0.28089  0.32302  Biso   1.000  O 
  O568     1.0000 0.18573  0.28089  0.29393  Biso   1.000  O 
  Ca220    1.0000 0.21922  0.28089  0.32610  Biso   1.000  Ca
  P132     1.0000 0.07528  0.28089  0.30291  Biso   1.000  P 
  O569     1.0000 0.05172  0.28089  0.30314  Biso   1.000  O 
  O570     1.0000 0.08400  0.28089  0.31932  Biso   1.000  O 
  O571     1.0000 0.12511  0.27438  0.28456  Biso   1.000  O 
  O572     1.0000 0.12511  0.33687  0.28456  Biso   1.000  O 
  H43      1.0000 0.12511  0.25420  0.28456  Biso   1.000  H 
  H44      1.0000 0.12522  0.31669  0.28452  Biso   1.000  H 
  O573     1.0000 0.23942  0.36585  0.37139  Biso   1.000  O 
  O574     1.0000 0.09286  0.36585  0.36974  Biso   1.000  O 
  O575     1.0000 0.16805  0.36585  0.38364  Biso   1.000  O 
  O576     1.0000 0.13580  0.30335  0.36038  Biso   1.000  O 
  O577     1.0000 0.03236  0.30335  0.36204  Biso   1.000  O 
  O578     1.0000 0.20717  0.30335  0.34813  Biso   1.000  O 
  O579     1.0000 0.13580  0.25842  0.36038  Biso   1.000  O 
  O580     1.0000 0.03236  0.25842  0.36204  Biso   1.000  O 
  O581     1.0000 0.20717  0.25842  0.34813  Biso   1.000  O 
  O582     1.0000 0.23942  0.32093  0.37139  Biso   1.000  O 
  O583     1.0000 0.09286  0.32093  0.36974  Biso   1.000  O 
  O584     1.0000 0.16805  0.32093  0.38364  Biso   1.000  O 
  Ca221    1.0000 0.16678  0.37445  0.33877  Biso   1.000  Ca
  Ca222    1.0000 0.08344  0.31196  0.33878  Biso   1.000  Ca
  Ca223    1.0000 0.08344  0.37482  0.33878  Biso   1.000  Ca
  Ca224    1.0000 0.16678  0.31231  0.33877  Biso   1.000  Ca
  Ca225    1.0000 0.22006  0.34338  0.35254  Biso   1.000  Ca
  P133     1.0000 0.24636  0.34338  0.38038  Biso   1.000  P 
  O585     1.0000 0.10984  0.34338  0.34160  Biso   1.000  O 
  O586     1.0000 0.01963  0.34338  0.38291  Biso   1.000  O 
  Ca226    1.0000 0.12429  0.34338  0.36656  Biso   1.000  Ca
  P134     1.0000 0.07904  0.34338  0.36975  Biso   1.000  P 
  O587     1.0000 0.06700  0.34338  0.35454  Biso   1.000  O 
  O588     1.0000 0.06449  0.34338  0.38362  Biso   1.000  O 
  Ca227    1.0000 0.03099  0.34338  0.35146  Biso   1.000  Ca
  P135     1.0000 0.17495  0.34338  0.37464  Biso   1.000  P 
  O589     1.0000 0.19850  0.34338  0.37442  Biso   1.000  O 
  O590     1.0000 0.16622  0.34338  0.35824  Biso   1.000  O 
  Ca228    1.0000 0.15518  0.28089  0.37924  Biso   1.000  Ca
  P136     1.0000 0.12886  0.28089  0.35140  Biso   1.000  P 
  O591     1.0000 0.01539  0.28089  0.39018  Biso   1.000  O 
  O592     1.0000 0.10560  0.28089  0.34887  Biso   1.000  O 
  Ca229    1.0000 0.00093  0.28089  0.36521  Biso   1.000  Ca
  P137     1.0000 0.04619  0.28089  0.36203  Biso   1.000  P 
  O593     1.0000 0.05822  0.28089  0.37724  Biso   1.000  O 
  O594     1.0000 0.06073  0.28089  0.34815  Biso   1.000  O 
  Ca230    1.0000 0.09422  0.28089  0.38032  Biso   1.000  Ca
  P138     1.0000 0.20028  0.28089  0.35713  Biso   1.000  P 
  O595     1.0000 0.17672  0.28089  0.35736  Biso   1.000  O 
  O596     1.0000 0.20900  0.28089  0.37353  Biso   1.000  O 
  O597     1.0000 0.00011  0.27438  0.33878  Biso   1.000  O 
  O598     1.0000 0.00011  0.33687  0.33878  Biso   1.000  O 
  H45      1.0000 0.00011  0.25420  0.33878  Biso   1.000  H 
  H46      1.0000 0.00022  0.31669  0.33873  Biso   1.000  H 
  O599     1.0000 0.11442  0.36585  0.42561  Biso   1.000  O 
  O600     1.0000 0.21786  0.36585  0.42395  Biso   1.000  O 
  O601     1.0000 0.04305  0.36585  0.43786  Biso   1.000  O 
  O602     1.0000 0.01080  0.30335  0.41460  Biso   1.000  O 
  O603     1.0000 0.15736  0.30335  0.41625  Biso   1.000  O 
  O604     1.0000 0.08217  0.30335  0.40235  Biso   1.000  O 
  O605     1.0000 0.01080  0.25842  0.41460  Biso   1.000  O 
  O606     1.0000 0.15736  0.25842  0.41625  Biso   1.000  O 
  O607     1.0000 0.08217  0.25842  0.40235  Biso   1.000  O 
  O608     1.0000 0.11442  0.32093  0.42561  Biso   1.000  O 
  O609     1.0000 0.21786  0.32093  0.42395  Biso   1.000  O 
  O610     1.0000 0.04305  0.32093  0.43786  Biso   1.000  O 
  Ca231    1.0000 0.04178  0.37445  0.39299  Biso   1.000  Ca
  Ca232    1.0000 0.20844  0.31196  0.39300  Biso   1.000  Ca
  Ca233    1.0000 0.20844  0.37482  0.39300  Biso   1.000  Ca
  Ca234    1.0000 0.04178  0.31231  0.39299  Biso   1.000  Ca
  Ca235    1.0000 0.09506  0.34338  0.40675  Biso   1.000  Ca
  P139     1.0000 0.12136  0.34338  0.43460  Biso   1.000  P 
  O611     1.0000 0.23484  0.34338  0.39582  Biso   1.000  O 
  O612     1.0000 0.14463  0.34338  0.43713  Biso   1.000  O 
  Ca236    1.0000 0.24929  0.34338  0.42078  Biso   1.000  Ca
  P140     1.0000 0.20404  0.34338  0.42397  Biso   1.000  P 
  O613     1.0000 0.19200  0.34338  0.40876  Biso   1.000  O 
  O614     1.0000 0.18949  0.34338  0.43784  Biso   1.000  O 
  Ca237    1.0000 0.15599  0.34338  0.40568  Biso   1.000  Ca
  P141     1.0000 0.04995  0.34338  0.42886  Biso   1.000  P 
  O615     1.0000 0.07350  0.34338  0.42864  Biso   1.000  O 
  O616     1.0000 0.04122  0.34338  0.41246  Biso   1.000  O 
  Ca238    1.0000 0.03018  0.28089  0.43346  Biso   1.000  Ca
  P142     1.0000 0.00386  0.28089  0.40561  Biso   1.000  P 
  O617     1.0000 0.14039  0.28089  0.44439  Biso   1.000  O 
  O618     1.0000 0.23060  0.28089  0.40309  Biso   1.000  O 
  Ca239    1.0000 0.12593  0.28089  0.41943  Biso   1.000  Ca
  P143     1.0000 0.17119  0.28089  0.41624  Biso   1.000  P 
  O619     1.0000 0.18322  0.28089  0.43146  Biso   1.000  O 
  O620     1.0000 0.18573  0.28089  0.40237  Biso   1.000  O 
  Ca240    1.0000 0.21922  0.28089  0.43454  Biso   1.000  Ca
  P144     1.0000 0.07528  0.28089  0.41135  Biso   1.000  P 
  O621     1.0000 0.05172  0.28089  0.41157  Biso   1.000  O 
  O622     1.0000 0.08400  0.28089  0.42775  Biso   1.000  O 
  O623     1.0000 0.12511  0.27438  0.39300  Biso   1.000  O 
  O624     1.0000 0.12511  0.33687  0.39300  Biso   1.000  O 
  H47      1.0000 0.12511  0.25420  0.39300  Biso   1.000  H 
  H48      1.0000 0.12522  0.31669  0.39295  Biso   1.000  H 
  O625     1.0000 0.23942  0.36585  0.47982  Biso   1.000  O 
  O626     1.0000 0.09286  0.36585  0.47817  Biso   1.000  O 
  O627     1.0000 0.16805  0.36585  0.49208  Biso   1.000  O 
  O628     1.0000 0.13580  0.30335  0.46882  Biso   1.000  O 
  O629     1.0000 0.03236  0.30335  0.47047  Biso   1.000  O 
  O630     1.0000 0.20717  0.30335  0.45657  Biso   1.000  O 
  O631     1.0000 0.13580  0.25842  0.46882  Biso   1.000  O 
  O632     1.0000 0.03236  0.25842  0.47047  Biso   1.000  O 
  O633     1.0000 0.20717  0.25842  0.45657  Biso   1.000  O 
  O634     1.0000 0.23942  0.32093  0.47982  Biso   1.000  O 
  O635     1.0000 0.09286  0.32093  0.47817  Biso   1.000  O 
  O636     1.0000 0.16805  0.32093  0.49208  Biso   1.000  O 
  Ca241    1.0000 0.16678  0.37445  0.44721  Biso   1.000  Ca
  Ca242    1.0000 0.08344  0.31196  0.44722  Biso   1.000  Ca
  Ca243    1.0000 0.08344  0.37482  0.44722  Biso   1.000  Ca
  Ca244    1.0000 0.16678  0.31231  0.44721  Biso   1.000  Ca
  Ca245    1.0000 0.22006  0.34338  0.46097  Biso   1.000  Ca
  P145     1.0000 0.24636  0.34338  0.48881  Biso   1.000  P 
  O637     1.0000 0.10984  0.34338  0.45004  Biso   1.000  O 
  O638     1.0000 0.01963  0.34338  0.49134  Biso   1.000  O 
  Ca246    1.0000 0.12429  0.34338  0.47500  Biso   1.000  Ca
  P146     1.0000 0.07904  0.34338  0.47819  Biso   1.000  P 
  O639     1.0000 0.06700  0.34338  0.46298  Biso   1.000  O 
  O640     1.0000 0.06449  0.34338  0.49206  Biso   1.000  O 
  Ca247    1.0000 0.03099  0.34338  0.45990  Biso   1.000  Ca
  P147     1.0000 0.17495  0.34338  0.48308  Biso   1.000  P 
  O641     1.0000 0.19850  0.34338  0.48285  Biso   1.000  O 
  O642     1.0000 0.16622  0.34338  0.46667  Biso   1.000  O 
  Ca248    1.0000 0.15518  0.28089  0.48768  Biso   1.000  Ca
  P148     1.0000 0.12886  0.28089  0.45983  Biso   1.000  P 
  O643     1.0000 0.01539  0.28089  0.49861  Biso   1.000  O 
  O644     1.0000 0.10560  0.28089  0.45731  Biso   1.000  O 
  Ca249    1.0000 0.00093  0.28089  0.47365  Biso   1.000  Ca
  P149     1.0000 0.04619  0.28089  0.47046  Biso   1.000  P 
  O645     1.0000 0.05822  0.28089  0.48568  Biso   1.000  O 
  O646     1.0000 0.06073  0.28089  0.45658  Biso   1.000  O 
  Ca250    1.0000 0.09422  0.28089  0.48875  Biso   1.000  Ca
  P150     1.0000 0.20028  0.28089  0.46557  Biso   1.000  P 
  O647     1.0000 0.17672  0.28089  0.46579  Biso   1.000  O 
  O648     1.0000 0.20900  0.28089  0.48197  Biso   1.000  O 
  O649     1.0000 0.00011  0.27438  0.44722  Biso   1.000  O 
  O650     1.0000 0.00011  0.33687  0.44722  Biso   1.000  O 
  H49      1.0000 0.00011  0.25420  0.44722  Biso   1.000  H 
  H50      1.0000 0.00022  0.31669  0.44717  Biso   1.000  H 
  O651     1.0000 0.11442  0.36585  0.53404  Biso   1.000  O 
  O652     1.0000 0.21786  0.36585  0.53239  Biso   1.000  O 
  O653     1.0000 0.04305  0.36585  0.54629  Biso   1.000  O 
  O654     1.0000 0.01080  0.30335  0.52304  Biso   1.000  O 
  O655     1.0000 0.15736  0.30335  0.52469  Biso   1.000  O 
  O656     1.0000 0.08217  0.30335  0.51079  Biso   1.000  O 
  O657     1.0000 0.01080  0.25842  0.52304  Biso   1.000  O 
  O658     1.0000 0.15736  0.25842  0.52469  Biso   1.000  O 
  O659     1.0000 0.08217  0.25842  0.51079  Biso   1.000  O 
  O660     1.0000 0.11442  0.32093  0.53404  Biso   1.000  O 
  O661     1.0000 0.21786  0.32093  0.53239  Biso   1.000  O 
  O662     1.0000 0.04305  0.32093  0.54629  Biso   1.000  O 
  Ca251    1.0000 0.04178  0.37445  0.50143  Biso   1.000  Ca
  Ca252    1.0000 0.20844  0.31196  0.50144  Biso   1.000  Ca
  Ca253    1.0000 0.20844  0.37482  0.50144  Biso   1.000  Ca
  Ca254    1.0000 0.04178  0.31231  0.50143  Biso   1.000  Ca
  Ca255    1.0000 0.09506  0.34338  0.51519  Biso   1.000  Ca
  P151     1.0000 0.12136  0.34338  0.54303  Biso   1.000  P 
  O663     1.0000 0.23484  0.34338  0.50426  Biso   1.000  O 
  O664     1.0000 0.14463  0.34338  0.54556  Biso   1.000  O 
  Ca256    1.0000 0.24929  0.34338  0.52922  Biso   1.000  Ca
  P152     1.0000 0.20404  0.34338  0.53241  Biso   1.000  P 
  O665     1.0000 0.19200  0.34338  0.51720  Biso   1.000  O 
  O666     1.0000 0.18949  0.34338  0.54628  Biso   1.000  O 
  Ca257    1.0000 0.15599  0.34338  0.51412  Biso   1.000  Ca
  P153     1.0000 0.04995  0.34338  0.53729  Biso   1.000  P 
  O667     1.0000 0.07350  0.34338  0.53707  Biso   1.000  O 
  O668     1.0000 0.04122  0.34338  0.52089  Biso   1.000  O 
  Ca258    1.0000 0.03018  0.28089  0.54190  Biso   1.000  Ca
  P154     1.0000 0.00386  0.28089  0.51405  Biso   1.000  P 
  O669     1.0000 0.14039  0.28089  0.55283  Biso   1.000  O 
  O670     1.0000 0.23060  0.28089  0.51152  Biso   1.000  O 
  Ca259    1.0000 0.12593  0.28089  0.52786  Biso   1.000  Ca
  P155     1.0000 0.17119  0.28089  0.52468  Biso   1.000  P 
  O671     1.0000 0.18322  0.28089  0.53989  Biso   1.000  O 
  O672     1.0000 0.18573  0.28089  0.51080  Biso   1.000  O 
  Ca260    1.0000 0.21922  0.28089  0.54297  Biso   1.000  Ca
  P156     1.0000 0.07528  0.28089  0.51979  Biso   1.000  P 
  O673     1.0000 0.05172  0.28089  0.52001  Biso   1.000  O 
  O674     1.0000 0.08400  0.28089  0.53619  Biso   1.000  O 
  O675     1.0000 0.12511  0.27438  0.50143  Biso   1.000  O 
  O676     1.0000 0.12511  0.33687  0.50143  Biso   1.000  O 
  H51      1.0000 0.12511  0.25420  0.50143  Biso   1.000  H 
  H52      1.0000 0.12522  0.31669  0.50139  Biso   1.000  H 
  O677     1.0000 0.23942  0.36585  0.58826  Biso   1.000  O 
  O678     1.0000 0.09286  0.36585  0.58661  Biso   1.000  O 
  O679     1.0000 0.16805  0.36585  0.60051  Biso   1.000  O 
  O680     1.0000 0.13580  0.30335  0.57726  Biso   1.000  O 
  O681     1.0000 0.03236  0.30335  0.57891  Biso   1.000  O 
  O682     1.0000 0.20717  0.30335  0.56500  Biso   1.000  O 
  O683     1.0000 0.13580  0.25842  0.57726  Biso   1.000  O 
  O684     1.0000 0.03236  0.25842  0.57891  Biso   1.000  O 
  O685     1.0000 0.20717  0.25842  0.56500  Biso   1.000  O 
  O686     1.0000 0.23942  0.32093  0.58826  Biso   1.000  O 
  O687     1.0000 0.09286  0.32093  0.58661  Biso   1.000  O 
  O688     1.0000 0.16805  0.32093  0.60051  Biso   1.000  O 
  Ca261    1.0000 0.16678  0.37445  0.55565  Biso   1.000  Ca
  Ca262    1.0000 0.08344  0.31196  0.55565  Biso   1.000  Ca
  Ca263    1.0000 0.08344  0.37482  0.55565  Biso   1.000  Ca
  Ca264    1.0000 0.16678  0.31231  0.55565  Biso   1.000  Ca
  Ca265    1.0000 0.22006  0.34338  0.56941  Biso   1.000  Ca
  P157     1.0000 0.24636  0.34338  0.59725  Biso   1.000  P 
  O689     1.0000 0.10984  0.34338  0.55847  Biso   1.000  O 
  O690     1.0000 0.01963  0.34338  0.59978  Biso   1.000  O 
  Ca266    1.0000 0.12429  0.34338  0.58343  Biso   1.000  Ca
  P158     1.0000 0.07904  0.34338  0.58662  Biso   1.000  P 
  O691     1.0000 0.06700  0.34338  0.57141  Biso   1.000  O 
  O692     1.0000 0.06449  0.34338  0.60050  Biso   1.000  O 
  Ca267    1.0000 0.03099  0.34338  0.56834  Biso   1.000  Ca
  P159     1.0000 0.17495  0.34338  0.59151  Biso   1.000  P 
  O693     1.0000 0.19850  0.34338  0.59129  Biso   1.000  O 
  O694     1.0000 0.16622  0.34338  0.57511  Biso   1.000  O 
  Ca268    1.0000 0.15518  0.28089  0.59611  Biso   1.000  Ca
  P160     1.0000 0.12886  0.28089  0.56827  Biso   1.000  P 
  O695     1.0000 0.01539  0.28089  0.60705  Biso   1.000  O 
  O696     1.0000 0.10560  0.28089  0.56574  Biso   1.000  O 
  Ca269    1.0000 0.00093  0.28089  0.58208  Biso   1.000  Ca
  P161     1.0000 0.04619  0.28089  0.57890  Biso   1.000  P 
  O697     1.0000 0.05822  0.28089  0.59411  Biso   1.000  O 
  O698     1.0000 0.06073  0.28089  0.56502  Biso   1.000  O 
  Ca270    1.0000 0.09422  0.28089  0.59719  Biso   1.000  Ca
  P162     1.0000 0.20028  0.28089  0.57400  Biso   1.000  P 
  O699     1.0000 0.17672  0.28089  0.57423  Biso   1.000  O 
  O700     1.0000 0.20900  0.28089  0.59041  Biso   1.000  O 
  O701     1.0000 0.00011  0.27438  0.55565  Biso   1.000  O 
  O702     1.0000 0.00011  0.33687  0.55565  Biso   1.000  O 
  H53      1.0000 0.00011  0.25420  0.55565  Biso   1.000  H 
  H54      1.0000 0.00022  0.31669  0.55561  Biso   1.000  H 
  O703     1.0000 0.11442  0.36585  0.64248  Biso   1.000  O 
  O704     1.0000 0.21786  0.36585  0.64083  Biso   1.000  O 
  O705     1.0000 0.04305  0.36585  0.65473  Biso   1.000  O 
  O706     1.0000 0.01080  0.30335  0.63147  Biso   1.000  O 
  O707     1.0000 0.15736  0.30335  0.63313  Biso   1.000  O 
  O708     1.0000 0.08217  0.30335  0.61922  Biso   1.000  O 
  O709     1.0000 0.01080  0.25842  0.63147  Biso   1.000  O 
  O710     1.0000 0.15736  0.25842  0.63313  Biso   1.000  O 
  O711     1.0000 0.08217  0.25842  0.61922  Biso   1.000  O 
  O712     1.0000 0.11442  0.32093  0.64248  Biso   1.000  O 
  O713     1.0000 0.21786  0.32093  0.64083  Biso   1.000  O 
  O714     1.0000 0.04305  0.32093  0.65473  Biso   1.000  O 
  Ca271    1.0000 0.04178  0.37445  0.60986  Biso   1.000  Ca
  Ca272    1.0000 0.20844  0.31196  0.60987  Biso   1.000  Ca
  Ca273    1.0000 0.20844  0.37482  0.60987  Biso   1.000  Ca
  Ca274    1.0000 0.04178  0.31231  0.60986  Biso   1.000  Ca
  Ca275    1.0000 0.09506  0.34338  0.62363  Biso   1.000  Ca
  P163     1.0000 0.12136  0.34338  0.65147  Biso   1.000  P 
  O715     1.0000 0.23484  0.34338  0.61269  Biso   1.000  O 
  O716     1.0000 0.14463  0.34338  0.65400  Biso   1.000  O 
  Ca276    1.0000 0.24929  0.34338  0.63765  Biso   1.000  Ca
  P164     1.0000 0.20404  0.34338  0.64084  Biso   1.000  P 
  O717     1.0000 0.19200  0.34338  0.62563  Biso   1.000  O 
  O718     1.0000 0.18949  0.34338  0.65471  Biso   1.000  O 
  Ca277    1.0000 0.15599  0.34338  0.62255  Biso   1.000  Ca
  P165     1.0000 0.04995  0.34338  0.64573  Biso   1.000  P 
  O719     1.0000 0.07350  0.34338  0.64551  Biso   1.000  O 
  O720     1.0000 0.04122  0.34338  0.62933  Biso   1.000  O 
  Ca278    1.0000 0.03018  0.28089  0.65033  Biso   1.000  Ca
  P166     1.0000 0.00386  0.28089  0.62248  Biso   1.000  P 
  O721     1.0000 0.14039  0.28089  0.66127  Biso   1.000  O 
  O722     1.0000 0.23060  0.28089  0.61996  Biso   1.000  O 
  Ca279    1.0000 0.12593  0.28089  0.63630  Biso   1.000  Ca
  P167     1.0000 0.17119  0.28089  0.63312  Biso   1.000  P 
  O723     1.0000 0.18322  0.28089  0.64833  Biso   1.000  O 
  O724     1.0000 0.18573  0.28089  0.61924  Biso   1.000  O 
  Ca280    1.0000 0.21922  0.28089  0.65141  Biso   1.000  Ca
  P168     1.0000 0.07528  0.28089  0.62822  Biso   1.000  P 
  O725     1.0000 0.05172  0.28089  0.62845  Biso   1.000  O 
  O726     1.0000 0.08400  0.28089  0.64462  Biso   1.000  O 
  O727     1.0000 0.12511  0.27438  0.60987  Biso   1.000  O 
  O728     1.0000 0.12511  0.33687  0.60987  Biso   1.000  O 
  H55      1.0000 0.12511  0.25420  0.60987  Biso   1.000  H 
  H56      1.0000 0.12522  0.31669  0.60982  Biso   1.000  H 
  O729     1.0000 0.23942  0.36585  0.69670  Biso   1.000  O 
  O730     1.0000 0.09286  0.36585  0.69504  Biso   1.000  O 
  O731     1.0000 0.16805  0.36585  0.70895  Biso   1.000  O 
  O732     1.0000 0.13580  0.30335  0.68569  Biso   1.000  O 
  O733     1.0000 0.03236  0.30335  0.68734  Biso   1.000  O 
  O734     1.0000 0.20717  0.30335  0.67344  Biso   1.000  O 
  O735     1.0000 0.13580  0.25842  0.68569  Biso   1.000  O 
  O736     1.0000 0.03236  0.25842  0.68734  Biso   1.000  O 
  O737     1.0000 0.20717  0.25842  0.67344  Biso   1.000  O 
  O738     1.0000 0.23942  0.32093  0.69670  Biso   1.000  O 
  O739     1.0000 0.09286  0.32093  0.69504  Biso   1.000  O 
  O740     1.0000 0.16805  0.32093  0.70895  Biso   1.000  O 
  Ca281    1.0000 0.16678  0.37445  0.66408  Biso   1.000  Ca
  Ca282    1.0000 0.08344  0.31196  0.66409  Biso   1.000  Ca
  Ca283    1.0000 0.08344  0.37482  0.66409  Biso   1.000  Ca
  Ca284    1.0000 0.16678  0.31231  0.66408  Biso   1.000  Ca
  Ca285    1.0000 0.22006  0.34338  0.67784  Biso   1.000  Ca
  P169     1.0000 0.24636  0.34338  0.70569  Biso   1.000  P 
  O741     1.0000 0.10984  0.34338  0.66691  Biso   1.000  O 
  O742     1.0000 0.01963  0.34338  0.70822  Biso   1.000  O 
  Ca286    1.0000 0.12429  0.34338  0.69187  Biso   1.000  Ca
  P170     1.0000 0.07904  0.34338  0.69506  Biso   1.000  P 
  O743     1.0000 0.06700  0.34338  0.67985  Biso   1.000  O 
  O744     1.0000 0.06449  0.34338  0.70893  Biso   1.000  O 
  Ca287    1.0000 0.03099  0.34338  0.67677  Biso   1.000  Ca
  P171     1.0000 0.17495  0.34338  0.69995  Biso   1.000  P 
  O745     1.0000 0.19850  0.34338  0.69973  Biso   1.000  O 
  O746     1.0000 0.16622  0.34338  0.68355  Biso   1.000  O 
  Ca288    1.0000 0.15518  0.28089  0.70455  Biso   1.000  Ca
  P172     1.0000 0.12886  0.28089  0.67670  Biso   1.000  P 
  O747     1.0000 0.01539  0.28089  0.71548  Biso   1.000  O 
  O748     1.0000 0.10560  0.28089  0.67418  Biso   1.000  O 
  Ca289    1.0000 0.00093  0.28089  0.69052  Biso   1.000  Ca
  P173     1.0000 0.04619  0.28089  0.68733  Biso   1.000  P 
  O749     1.0000 0.05822  0.28089  0.70255  Biso   1.000  O 
  O750     1.0000 0.06073  0.28089  0.67346  Biso   1.000  O 
  Ca290    1.0000 0.09422  0.28089  0.70563  Biso   1.000  Ca
  P174     1.0000 0.20028  0.28089  0.68244  Biso   1.000  P 
  O751     1.0000 0.17672  0.28089  0.68266  Biso   1.000  O 
  O752     1.0000 0.20900  0.28089  0.69884  Biso   1.000  O 
  O753     1.0000 0.00011  0.27438  0.66409  Biso   1.000  O 
  O754     1.0000 0.00011  0.33687  0.66409  Biso   1.000  O 
  H57      1.0000 0.00011  0.25420  0.66409  Biso   1.000  H 
  H58      1.0000 0.00022  0.31669  0.66404  Biso   1.000  H 
  O755     1.0000 0.11442  0.36585  0.75091  Biso   1.000  O 
  O756     1.0000 0.21786  0.36585  0.74926  Biso   1.000  O 
  O757     1.0000 0.04305  0.36585  0.76317  Biso   1.000  O 
  O758     1.0000 0.01080  0.30335  0.73991  Biso   1.000  O 
  O759     1.0000 0.15736  0.30335  0.74156  Biso   1.000  O 
  O760     1.0000 0.08217  0.30335  0.72766  Biso   1.000  O 
  O761     1.0000 0.01080  0.25842  0.73991  Biso   1.000  O 
  O762     1.0000 0.15736  0.25842  0.74156  Biso   1.000  O 
  O763     1.0000 0.08217  0.25842  0.72766  Biso   1.000  O 
  O764     1.0000 0.11442  0.32093  0.75091  Biso   1.000  O 
  O765     1.0000 0.21786  0.32093  0.74926  Biso   1.000  O 
  O766     1.0000 0.04305  0.32093  0.76317  Biso   1.000  O 
  Ca291    1.0000 0.04178  0.37445  0.71830  Biso   1.000  Ca
  Ca292    1.0000 0.20844  0.31196  0.71831  Biso   1.000  Ca
  Ca293    1.0000 0.20844  0.37482  0.71831  Biso   1.000  Ca
  Ca294    1.0000 0.04178  0.31231  0.71830  Biso   1.000  Ca
  Ca295    1.0000 0.09506  0.34338  0.73206  Biso   1.000  Ca
  P175     1.0000 0.12136  0.34338  0.75990  Biso   1.000  P 
  O767     1.0000 0.23484  0.34338  0.72113  Biso   1.000  O 
  O768     1.0000 0.14463  0.34338  0.76243  Biso   1.000  O 
  Ca296    1.0000 0.24929  0.34338  0.74609  Biso   1.000  Ca
  P176     1.0000 0.20404  0.34338  0.74928  Biso   1.000  P 
  O769     1.0000 0.19200  0.34338  0.73407  Biso   1.000  O 
  O770     1.0000 0.18949  0.34338  0.76315  Biso   1.000  O 
  Ca297    1.0000 0.15599  0.34338  0.73099  Biso   1.000  Ca
  P177     1.0000 0.04995  0.34338  0.75417  Biso   1.000  P 
  O771     1.0000 0.07350  0.34338  0.75394  Biso   1.000  O 
  O772     1.0000 0.04122  0.34338  0.73776  Biso   1.000  O 
  Ca298    1.0000 0.03018  0.28089  0.75877  Biso   1.000  Ca
  P178     1.0000 0.00386  0.28089  0.73092  Biso   1.000  P 
  O773     1.0000 0.14039  0.28089  0.76970  Biso   1.000  O 
  O774     1.0000 0.23060  0.28089  0.72840  Biso   1.000  O 
  Ca299    1.0000 0.12593  0.28089  0.74474  Biso   1.000  Ca
  P179     1.0000 0.17119  0.28089  0.74155  Biso   1.000  P 
  O775     1.0000 0.18322  0.28089  0.75677  Biso   1.000  O 
  O776     1.0000 0.18573  0.28089  0.72767  Biso   1.000  O 
  Ca300    1.0000 0.21922  0.28089  0.75984  Biso   1.000  Ca
  P180     1.0000 0.07528  0.28089  0.73666  Biso   1.000  P 
  O777     1.0000 0.05172  0.28089  0.73688  Biso   1.000  O 
  O778     1.0000 0.08400  0.28089  0.75306  Biso   1.000  O 
  O779     1.0000 0.12511  0.27438  0.71831  Biso   1.000  O 
  O780     1.0000 0.12511  0.33687  0.71831  Biso   1.000  O 
  H59      1.0000 0.12511  0.25420  0.71831  Biso   1.000  H 
  H60      1.0000 0.12522  0.31669  0.71826  Biso   1.000  H 
  O781     1.0000 0.23942  0.49085  0.26295  Biso   1.000  O 
  O782     1.0000 0.09286  0.49085  0.26130  Biso   1.000  O 
  O783     1.0000 0.16805  0.49085  0.27520  Biso   1.000  O 
  O784     1.0000 0.13580  0.42835  0.25195  Biso   1.000  O 
  O785     1.0000 0.03236  0.42835  0.25360  Biso   1.000  O 
  O786     1.0000 0.20717  0.42835  0.23970  Biso   1.000  O 
  O787     1.0000 0.13580  0.38342  0.25195  Biso   1.000  O 
  O788     1.0000 0.03236  0.38342  0.25360  Biso   1.000  O 
  O789     1.0000 0.20717  0.38342  0.23970  Biso   1.000  O 
  O790     1.0000 0.23942  0.44593  0.26295  Biso   1.000  O 
  O791     1.0000 0.09286  0.44593  0.26130  Biso   1.000  O 
  O792     1.0000 0.16805  0.44593  0.27520  Biso   1.000  O 
  Ca301    1.0000 0.16678  0.49945  0.23034  Biso   1.000  Ca
  Ca302    1.0000 0.08344  0.43696  0.23035  Biso   1.000  Ca
  Ca303    1.0000 0.08344  0.49982  0.23035  Biso   1.000  Ca
  Ca304    1.0000 0.16678  0.43731  0.23034  Biso   1.000  Ca
  Ca305    1.0000 0.22006  0.46838  0.24410  Biso   1.000  Ca
  P181     1.0000 0.24636  0.46838  0.27194  Biso   1.000  P 
  O793     1.0000 0.10984  0.46838  0.23317  Biso   1.000  O 
  O794     1.0000 0.01963  0.46838  0.27447  Biso   1.000  O 
  Ca306    1.0000 0.12429  0.46838  0.25813  Biso   1.000  Ca
  P182     1.0000 0.07904  0.46838  0.26132  Biso   1.000  P 
  O795     1.0000 0.06700  0.46838  0.24611  Biso   1.000  O 
  O796     1.0000 0.06449  0.46838  0.27519  Biso   1.000  O 
  Ca307    1.0000 0.03099  0.46838  0.24303  Biso   1.000  Ca
  P183     1.0000 0.17495  0.46838  0.26620  Biso   1.000  P 
  O797     1.0000 0.19850  0.46838  0.26598  Biso   1.000  O 
  O798     1.0000 0.16622  0.46838  0.24980  Biso   1.000  O 
  Ca308    1.0000 0.15518  0.40589  0.27081  Biso   1.000  Ca
  P184     1.0000 0.12886  0.40589  0.24296  Biso   1.000  P 
  O799     1.0000 0.01539  0.40589  0.28174  Biso   1.000  O 
  O800     1.0000 0.10560  0.40589  0.24043  Biso   1.000  O 
  Ca309    1.0000 0.00093  0.40589  0.25677  Biso   1.000  Ca
  P185     1.0000 0.04619  0.40589  0.25359  Biso   1.000  P 
  O801     1.0000 0.05822  0.40589  0.26880  Biso   1.000  O 
  O802     1.0000 0.06073  0.40589  0.23971  Biso   1.000  O 
  Ca310    1.0000 0.09422  0.40589  0.27188  Biso   1.000  Ca
  P186     1.0000 0.20028  0.40589  0.24870  Biso   1.000  P 
  O803     1.0000 0.17672  0.40589  0.24892  Biso   1.000  O 
  O804     1.0000 0.20900  0.40589  0.26510  Biso   1.000  O 
  O805     1.0000 0.00011  0.39938  0.23034  Biso   1.000  O 
  O806     1.0000 0.00011  0.46187  0.23034  Biso   1.000  O 
  H61      1.0000 0.00011  0.37920  0.23034  Biso   1.000  H 
  H62      1.0000 0.00022  0.44169  0.23030  Biso   1.000  H 
  O807     1.0000 0.11442  0.49085  0.31717  Biso   1.000  O 
  O808     1.0000 0.21786  0.49085  0.31552  Biso   1.000  O 
  O809     1.0000 0.04305  0.49085  0.32942  Biso   1.000  O 
  O810     1.0000 0.01080  0.42835  0.30617  Biso   1.000  O 
  O811     1.0000 0.15736  0.42835  0.30782  Biso   1.000  O 
  O812     1.0000 0.08217  0.42835  0.29391  Biso   1.000  O 
  O813     1.0000 0.01080  0.38342  0.30617  Biso   1.000  O 
  O814     1.0000 0.15736  0.38342  0.30782  Biso   1.000  O 
  O815     1.0000 0.08217  0.38342  0.29391  Biso   1.000  O 
  O816     1.0000 0.11442  0.44593  0.31717  Biso   1.000  O 
  O817     1.0000 0.21786  0.44593  0.31552  Biso   1.000  O 
  O818     1.0000 0.04305  0.44593  0.32942  Biso   1.000  O 
  Ca311    1.0000 0.04178  0.49945  0.28456  Biso   1.000  Ca
  Ca312    1.0000 0.20844  0.43696  0.28456  Biso   1.000  Ca
  Ca313    1.0000 0.20844  0.49982  0.28456  Biso   1.000  Ca
  Ca314    1.0000 0.04178  0.43731  0.28456  Biso   1.000  Ca
  Ca315    1.0000 0.09506  0.46838  0.29832  Biso   1.000  Ca
  P187     1.0000 0.12136  0.46838  0.32616  Biso   1.000  P 
  O819     1.0000 0.23484  0.46838  0.28738  Biso   1.000  O 
  O820     1.0000 0.14463  0.46838  0.32869  Biso   1.000  O 
  Ca316    1.0000 0.24929  0.46838  0.31234  Biso   1.000  Ca
  P188     1.0000 0.20404  0.46838  0.31554  Biso   1.000  P 
  O821     1.0000 0.19200  0.46838  0.30033  Biso   1.000  O 
  O822     1.0000 0.18949  0.46838  0.32941  Biso   1.000  O 
  Ca317    1.0000 0.15599  0.46838  0.29725  Biso   1.000  Ca
  P189     1.0000 0.04995  0.46838  0.32042  Biso   1.000  P 
  O823     1.0000 0.07350  0.46838  0.32020  Biso   1.000  O 
  O824     1.0000 0.04122  0.46838  0.30402  Biso   1.000  O 
  Ca318    1.0000 0.03018  0.40589  0.32502  Biso   1.000  Ca
  P190     1.0000 0.00386  0.40589  0.29718  Biso   1.000  P 
  O825     1.0000 0.14039  0.40589  0.33596  Biso   1.000  O 
  O826     1.0000 0.23060  0.40589  0.29465  Biso   1.000  O 
  Ca319    1.0000 0.12593  0.40589  0.31099  Biso   1.000  Ca
  P191     1.0000 0.17119  0.40589  0.30781  Biso   1.000  P 
  O827     1.0000 0.18322  0.40589  0.32302  Biso   1.000  O 
  O828     1.0000 0.18573  0.40589  0.29393  Biso   1.000  O 
  Ca320    1.0000 0.21922  0.40589  0.32610  Biso   1.000  Ca
  P192     1.0000 0.07528  0.40589  0.30291  Biso   1.000  P 
  O829     1.0000 0.05172  0.40589  0.30314  Biso   1.000  O 
  O830     1.0000 0.08400  0.40589  0.31932  Biso   1.000  O 
  O831     1.0000 0.12511  0.39938  0.28456  Biso   1.000  O 
  O832     1.0000 0.12511  0.46187  0.28456  Biso   1.000  O 
  H63      1.0000 0.12511  0.37920  0.28456  Biso   1.000  H 
  H64      1.0000 0.12522  0.44169  0.28452  Biso   1.000  H 
  O833     1.0000 0.23942  0.49085  0.37139  Biso   1.000  O 
  O834     1.0000 0.09286  0.49085  0.36974  Biso   1.000  O 
  O835     1.0000 0.16805  0.49085  0.38364  Biso   1.000  O 
  O836     1.0000 0.13580  0.42835  0.36038  Biso   1.000  O 
  O837     1.0000 0.03236  0.42835  0.36204  Biso   1.000  O 
  O838     1.0000 0.20717  0.42835  0.34813  Biso   1.000  O 
  O839     1.0000 0.13580  0.38342  0.36038  Biso   1.000  O 
  O840     1.0000 0.03236  0.38342  0.36204  Biso   1.000  O 
  O841     1.0000 0.20717  0.38342  0.34813  Biso   1.000  O 
  O842     1.0000 0.23942  0.44593  0.37139  Biso   1.000  O 
  O843     1.0000 0.09286  0.44593  0.36974  Biso   1.000  O 
  O844     1.0000 0.16805  0.44593  0.38364  Biso   1.000  O 
  Ca321    1.0000 0.16678  0.49945  0.33877  Biso   1.000  Ca
  Ca322    1.0000 0.08344  0.43696  0.33878  Biso   1.000  Ca
  Ca323    1.0000 0.08344  0.49982  0.33878  Biso   1.000  Ca
  Ca324    1.0000 0.16678  0.43731  0.33877  Biso   1.000  Ca
  Ca325    1.0000 0.22006  0.46838  0.35254  Biso   1.000  Ca
  P193     1.0000 0.24636  0.46838  0.38038  Biso   1.000  P 
  O845     1.0000 0.10984  0.46838  0.34160  Biso   1.000  O 
  O846     1.0000 0.01963  0.46838  0.38291  Biso   1.000  O 
  Ca326    1.0000 0.12429  0.46838  0.36656  Biso   1.000  Ca
  P194     1.0000 0.07904  0.46838  0.36975  Biso   1.000  P 
  O847     1.0000 0.06700  0.46838  0.35454  Biso   1.000  O 
  O848     1.0000 0.06449  0.46838  0.38362  Biso   1.000  O 
  Ca327    1.0000 0.03099  0.46838  0.35146  Biso   1.000  Ca
  P195     1.0000 0.17495  0.46838  0.37464  Biso   1.000  P 
  O849     1.0000 0.19850  0.46838  0.37442  Biso   1.000  O 
  O850     1.0000 0.16622  0.46838  0.35824  Biso   1.000  O 
  Ca328    1.0000 0.15518  0.40589  0.37924  Biso   1.000  Ca
  P196     1.0000 0.12886  0.40589  0.35140  Biso   1.000  P 
  O851     1.0000 0.01539  0.40589  0.39018  Biso   1.000  O 
  O852     1.0000 0.10560  0.40589  0.34887  Biso   1.000  O 
  Ca329    1.0000 0.00093  0.40589  0.36521  Biso   1.000  Ca
  P197     1.0000 0.04619  0.40589  0.36203  Biso   1.000  P 
  O853     1.0000 0.05822  0.40589  0.37724  Biso   1.000  O 
  O854     1.0000 0.06073  0.40589  0.34815  Biso   1.000  O 
  Ca330    1.0000 0.09422  0.40589  0.38032  Biso   1.000  Ca
  P198     1.0000 0.20028  0.40589  0.35713  Biso   1.000  P 
  O855     1.0000 0.17672  0.40589  0.35736  Biso   1.000  O 
  O856     1.0000 0.20900  0.40589  0.37353  Biso   1.000  O 
  O857     1.0000 0.00011  0.39938  0.33878  Biso   1.000  O 
  O858     1.0000 0.00011  0.46187  0.33878  Biso   1.000  O 
  H65      1.0000 0.00011  0.37920  0.33878  Biso   1.000  H 
  H66      1.0000 0.00022  0.44169  0.33873  Biso   1.000  H 
  O859     1.0000 0.11442  0.49085  0.42561  Biso   1.000  O 
  O860     1.0000 0.21786  0.49085  0.42395  Biso   1.000  O 
  O861     1.0000 0.04305  0.49085  0.43786  Biso   1.000  O 
  O862     1.0000 0.01080  0.42835  0.41460  Biso   1.000  O 
  O863     1.0000 0.15736  0.42835  0.41625  Biso   1.000  O 
  O864     1.0000 0.08217  0.42835  0.40235  Biso   1.000  O 
  O865     1.0000 0.01080  0.38342  0.41460  Biso   1.000  O 
  O866     1.0000 0.15736  0.38342  0.41625  Biso   1.000  O 
  O867     1.0000 0.08217  0.38342  0.40235  Biso   1.000  O 
  O868     1.0000 0.11442  0.44593  0.42561  Biso   1.000  O 
  O869     1.0000 0.21786  0.44593  0.42395  Biso   1.000  O 
  O870     1.0000 0.04305  0.44593  0.43786  Biso   1.000  O 
  Ca331    1.0000 0.04178  0.49945  0.39299  Biso   1.000  Ca
  Ca332    1.0000 0.20844  0.43696  0.39300  Biso   1.000  Ca
  Ca333    1.0000 0.20844  0.49982  0.39300  Biso   1.000  Ca
  Ca334    1.0000 0.04178  0.43731  0.39299  Biso   1.000  Ca
  Ca335    1.0000 0.09506  0.46838  0.40675  Biso   1.000  Ca
  P199     1.0000 0.12136  0.46838  0.43460  Biso   1.000  P 
  O871     1.0000 0.23484  0.46838  0.39582  Biso   1.000  O 
  O872     1.0000 0.14463  0.46838  0.43713  Biso   1.000  O 
  Ca336    1.0000 0.24929  0.46838  0.42078  Biso   1.000  Ca
  P200     1.0000 0.20404  0.46838  0.42397  Biso   1.000  P 
  O873     1.0000 0.19200  0.46838  0.40876  Biso   1.000  O 
  O874     1.0000 0.18949  0.46838  0.43784  Biso   1.000  O 
  Ca337    1.0000 0.15599  0.46838  0.40568  Biso   1.000  Ca
  P201     1.0000 0.04995  0.46838  0.42886  Biso   1.000  P 
  O875     1.0000 0.07350  0.46838  0.42864  Biso   1.000  O 
  O876     1.0000 0.04122  0.46838  0.41246  Biso   1.000  O 
  Ca338    1.0000 0.03018  0.40589  0.43346  Biso   1.000  Ca
  P202     1.0000 0.00386  0.40589  0.40561  Biso   1.000  P 
  O877     1.0000 0.14039  0.40589  0.44439  Biso   1.000  O 
  O878     1.0000 0.23060  0.40589  0.40309  Biso   1.000  O 
  Ca339    1.0000 0.12593  0.40589  0.41943  Biso   1.000  Ca
  P203     1.0000 0.17119  0.40589  0.41624  Biso   1.000  P 
  O879     1.0000 0.18322  0.40589  0.43146  Biso   1.000  O 
  O880     1.0000 0.18573  0.40589  0.40237  Biso   1.000  O 
  Ca340    1.0000 0.21922  0.40589  0.43454  Biso   1.000  Ca
  P204     1.0000 0.07528  0.40589  0.41135  Biso   1.000  P 
  O881     1.0000 0.05172  0.40589  0.41157  Biso   1.000  O 
  O882     1.0000 0.08400  0.40589  0.42775  Biso   1.000  O 
  O883     1.0000 0.12511  0.39938  0.39300  Biso   1.000  O 
  O884     1.0000 0.12511  0.46187  0.39300  Biso   1.000  O 
  H67      1.0000 0.12511  0.37920  0.39300  Biso   1.000  H 
  H68      1.0000 0.12522  0.44169  0.39295  Biso   1.000  H 
  O885     1.0000 0.23942  0.49085  0.47982  Biso   1.000  O 
  O886     1.0000 0.09286  0.49085  0.47817  Biso   1.000  O 
  O887     1.0000 0.16805  0.49085  0.49208  Biso   1.000  O 
  O888     1.0000 0.13580  0.42835  0.46882  Biso   1.000  O 
  O889     1.0000 0.03236  0.42835  0.47047  Biso   1.000  O 
  O890     1.0000 0.20717  0.42835  0.45657  Biso   1.000  O 
  O891     1.0000 0.13580  0.38342  0.46882  Biso   1.000  O 
  O892     1.0000 0.03236  0.38342  0.47047  Biso   1.000  O 
  O893     1.0000 0.20717  0.38342  0.45657  Biso   1.000  O 
  O894     1.0000 0.23942  0.44593  0.47982  Biso   1.000  O 
  O895     1.0000 0.09286  0.44593  0.47817  Biso   1.000  O 
  O896     1.0000 0.16805  0.44593  0.49208  Biso   1.000  O 
  Ca341    1.0000 0.16678  0.49945  0.44721  Biso   1.000  Ca
  Ca342    1.0000 0.08344  0.43696  0.44722  Biso   1.000  Ca
  Ca343    1.0000 0.08344  0.49982  0.44722  Biso   1.000  Ca
  Ca344    1.0000 0.16678  0.43731  0.44721  Biso   1.000  Ca
  Ca345    1.0000 0.22006  0.46838  0.46097  Biso   1.000  Ca
  P205     1.0000 0.24636  0.46838  0.48881  Biso   1.000  P 
  O897     1.0000 0.10984  0.46838  0.45004  Biso   1.000  O 
  O898     1.0000 0.01963  0.46838  0.49134  Biso   1.000  O 
  Ca346    1.0000 0.12429  0.46838  0.47500  Biso   1.000  Ca
  P206     1.0000 0.07904  0.46838  0.47819  Biso   1.000  P 
  O899     1.0000 0.06700  0.46838  0.46298  Biso   1.000  O 
  O900     1.0000 0.06449  0.46838  0.49206  Biso   1.000  O 
  Ca347    1.0000 0.03099  0.46838  0.45990  Biso   1.000  Ca
  P207     1.0000 0.17495  0.46838  0.48308  Biso   1.000  P 
  O901     1.0000 0.19850  0.46838  0.48285  Biso   1.000  O 
  O902     1.0000 0.16622  0.46838  0.46667  Biso   1.000  O 
  Ca348    1.0000 0.15518  0.40589  0.48768  Biso   1.000  Ca
  P208     1.0000 0.12886  0.40589  0.45983  Biso   1.000  P 
  O903     1.0000 0.01539  0.40589  0.49861  Biso   1.000  O 
  O904     1.0000 0.10560  0.40589  0.45731  Biso   1.000  O 
  Ca349    1.0000 0.00093  0.40589  0.47365  Biso   1.000  Ca
  P209     1.0000 0.04619  0.40589  0.47046  Biso   1.000  P 
  O905     1.0000 0.05822  0.40589  0.48568  Biso   1.000  O 
  O906     1.0000 0.06073  0.40589  0.45658  Biso   1.000  O 
  Ca350    1.0000 0.09422  0.40589  0.48875  Biso   1.000  Ca
  P210     1.0000 0.20028  0.40589  0.46557  Biso   1.000  P 
  O907     1.0000 0.17672  0.40589  0.46579  Biso   1.000  O 
  O908     1.0000 0.20900  0.40589  0.48197  Biso   1.000  O 
  O909     1.0000 0.00011  0.39938  0.44722  Biso   1.000  O 
  O910     1.0000 0.00011  0.46187  0.44722  Biso   1.000  O 
  H69      1.0000 0.00011  0.37920  0.44722  Biso   1.000  H 
  H70      1.0000 0.00022  0.44169  0.44717  Biso   1.000  H 
  O911     1.0000 0.11442  0.49085  0.53404  Biso   1.000  O 
  O912     1.0000 0.21786  0.49085  0.53239  Biso   1.000  O 
  O913     1.0000 0.04305  0.49085  0.54629  Biso   1.000  O 
  O914     1.0000 0.01080  0.42835  0.52304  Biso   1.000  O 
  O915     1.0000 0.15736  0.42835  0.52469  Biso   1.000  O 
  O916     1.0000 0.08217  0.42835  0.51079  Biso   1.000  O 
  O917     1.0000 0.01080  0.38342  0.52304  Biso   1.000  O 
  O918     1.0000 0.15736  0.38342  0.52469  Biso   1.000  O 
  O919     1.0000 0.08217  0.38342  0.51079  Biso   1.000  O 
  O920     1.0000 0.11442  0.44593  0.53404  Biso   1.000  O 
  O921     1.0000 0.21786  0.44593  0.53239  Biso   1.000  O 
  O922     1.0000 0.04305  0.44593  0.54629  Biso   1.000  O 
  Ca351    1.0000 0.04178  0.49945  0.50143  Biso   1.000  Ca
  Ca352    1.0000 0.20844  0.43696  0.50144  Biso   1.000  Ca
  Ca353    1.0000 0.20844  0.49982  0.50144  Biso   1.000  Ca
  Ca354    1.0000 0.04178  0.43731  0.50143  Biso   1.000  Ca
  Ca355    1.0000 0.09506  0.46838  0.51519  Biso   1.000  Ca
  P211     1.0000 0.12136  0.46838  0.54303  Biso   1.000  P 
  O923     1.0000 0.23484  0.46838  0.50426  Biso   1.000  O 
  O924     1.0000 0.14463  0.46838  0.54556  Biso   1.000  O 
  Ca356    1.0000 0.24929  0.46838  0.52922  Biso   1.000  Ca
  P212     1.0000 0.20404  0.46838  0.53241  Biso   1.000  P 
  O925     1.0000 0.19200  0.46838  0.51720  Biso   1.000  O 
  O926     1.0000 0.18949  0.46838  0.54628  Biso   1.000  O 
  Ca357    1.0000 0.15599  0.46838  0.51412  Biso   1.000  Ca
  P213     1.0000 0.04995  0.46838  0.53729  Biso   1.000  P 
  O927     1.0000 0.07350  0.46838  0.53707  Biso   1.000  O 
  O928     1.0000 0.04122  0.46838  0.52089  Biso   1.000  O 
  Ca358    1.0000 0.03018  0.40589  0.54190  Biso   1.000  Ca
  P214     1.0000 0.00386  0.40589  0.51405  Biso   1.000  P 
  O929     1.0000 0.14039  0.40589  0.55283  Biso   1.000  O 
  O930     1.0000 0.23060  0.40589  0.51152  Biso   1.000  O 
  Ca359    1.0000 0.12593  0.40589  0.52786  Biso   1.000  Ca
  P215     1.0000 0.17119  0.40589  0.52468  Biso   1.000  P 
  O931     1.0000 0.18322  0.40589  0.53989  Biso   1.000  O 
  O932     1.0000 0.18573  0.40589  0.51080  Biso   1.000  O 
  Ca360    1.0000 0.21922  0.40589  0.54297  Biso   1.000  Ca
  P216     1.0000 0.07528  0.40589  0.51979  Biso   1.000  P 
  O933     1.0000 0.05172  0.40589  0.52001  Biso   1.000  O 
  O934     1.0000 0.08400  0.40589  0.53619  Biso   1.000  O 
  O935     1.0000 0.12511  0.39938  0.50143  Biso   1.000  O 
  O936     1.0000 0.12511  0.46187  0.50143  Biso   1.000  O 
  H71      1.0000 0.12511  0.37920  0.50143  Biso   1.000  H 
  H72      1.0000 0.12522  0.44169  0.50139  Biso   1.000  H 
  O937     1.0000 0.23942  0.49085  0.58826  Biso   1.000  O 
  O938     1.0000 0.09286  0.49085  0.58661  Biso   1.000  O 
  O939     1.0000 0.16805  0.49085  0.60051  Biso   1.000  O 
  O940     1.0000 0.13580  0.42835  0.57726  Biso   1.000  O 
  O941     1.0000 0.03236  0.42835  0.57891  Biso   1.000  O 
  O942     1.0000 0.20717  0.42835  0.56500  Biso   1.000  O 
  O943     1.0000 0.13580  0.38342  0.57726  Biso   1.000  O 
  O944     1.0000 0.03236  0.38342  0.57891  Biso   1.000  O 
  O945     1.0000 0.20717  0.38342  0.56500  Biso   1.000  O 
  O946     1.0000 0.23942  0.44593  0.58826  Biso   1.000  O 
  O947     1.0000 0.09286  0.44593  0.58661  Biso   1.000  O 
  O948     1.0000 0.16805  0.44593  0.60051  Biso   1.000  O 
  Ca361    1.0000 0.16678  0.49945  0.55565  Biso   1.000  Ca
  Ca362    1.0000 0.08344  0.43696  0.55565  Biso   1.000  Ca
  Ca363    1.0000 0.08344  0.49982  0.55565  Biso   1.000  Ca
  Ca364    1.0000 0.16678  0.43731  0.55565  Biso   1.000  Ca
  Ca365    1.0000 0.22006  0.46838  0.56941  Biso   1.000  Ca
  P217     1.0000 0.24636  0.46838  0.59725  Biso   1.000  P 
  O949     1.0000 0.10984  0.46838  0.55847  Biso   1.000  O 
  O950     1.0000 0.01963  0.46838  0.59978  Biso   1.000  O 
  Ca366    1.0000 0.12429  0.46838  0.58343  Biso   1.000  Ca
  P218     1.0000 0.07904  0.46838  0.58662  Biso   1.000  P 
  O951     1.0000 0.06700  0.46838  0.57141  Biso   1.000  O 
  O952     1.0000 0.06449  0.46838  0.60050  Biso   1.000  O 
  Ca367    1.0000 0.03099  0.46838  0.56834  Biso   1.000  Ca
  P219     1.0000 0.17495  0.46838  0.59151  Biso   1.000  P 
  O953     1.0000 0.19850  0.46838  0.59129  Biso   1.000  O 
  O954     1.0000 0.16622  0.46838  0.57511  Biso   1.000  O 
  Ca368    1.0000 0.15518  0.40589  0.59611  Biso   1.000  Ca
  P220     1.0000 0.12886  0.40589  0.56827  Biso   1.000  P 
  O955     1.0000 0.01539  0.40589  0.60705  Biso   1.000  O 
  O956     1.0000 0.10560  0.40589  0.56574  Biso   1.000  O 
  Ca369    1.0000 0.00093  0.40589  0.58208  Biso   1.000  Ca
  P221     1.0000 0.04619  0.40589  0.57890  Biso   1.000  P 
  O957     1.0000 0.05822  0.40589  0.59411  Biso   1.000  O 
  O958     1.0000 0.06073  0.40589  0.56502  Biso   1.000  O 
  Ca370    1.0000 0.09422  0.40589  0.59719  Biso   1.000  Ca
  P222     1.0000 0.20028  0.40589  0.57400  Biso   1.000  P 
  O959     1.0000 0.17672  0.40589  0.57423  Biso   1.000  O 
  O960     1.0000 0.20900  0.40589  0.59041  Biso   1.000  O 
  O961     1.0000 0.00011  0.39938  0.55565  Biso   1.000  O 
  O962     1.0000 0.00011  0.46187  0.55565  Biso   1.000  O 
  H73      1.0000 0.00011  0.37920  0.55565  Biso   1.000  H 
  H74      1.0000 0.00022  0.44169  0.55561  Biso   1.000  H 
  O963     1.0000 0.11442  0.49085  0.64248  Biso   1.000  O 
  O964     1.0000 0.21786  0.49085  0.64083  Biso   1.000  O 
  O965     1.0000 0.04305  0.49085  0.65473  Biso   1.000  O 
  O966     1.0000 0.01080  0.42835  0.63147  Biso   1.000  O 
  O967     1.0000 0.15736  0.42835  0.63313  Biso   1.000  O 
  O968     1.0000 0.08217  0.42835  0.61922  Biso   1.000  O 
  O969     1.0000 0.01080  0.38342  0.63147  Biso   1.000  O 
  O970     1.0000 0.15736  0.38342  0.63313  Biso   1.000  O 
  O971     1.0000 0.08217  0.38342  0.61922  Biso   1.000  O 
  O972     1.0000 0.11442  0.44593  0.64248  Biso   1.000  O 
  O973     1.0000 0.21786  0.44593  0.64083  Biso   1.000  O 
  O974     1.0000 0.04305  0.44593  0.65473  Biso   1.000  O 
  Ca371    1.0000 0.04178  0.49945  0.60986  Biso   1.000  Ca
  Ca372    1.0000 0.20844  0.43696  0.60987  Biso   1.000  Ca
  Ca373    1.0000 0.20844  0.49982  0.60987  Biso   1.000  Ca
  Ca374    1.0000 0.04178  0.43731  0.60986  Biso   1.000  Ca
  Ca375    1.0000 0.09506  0.46838  0.62363  Biso   1.000  Ca
  P223     1.0000 0.12136  0.46838  0.65147  Biso   1.000  P 
  O975     1.0000 0.23484  0.46838  0.61269  Biso   1.000  O 
  O976     1.0000 0.14463  0.46838  0.65400  Biso   1.000  O 
  Ca376    1.0000 0.24929  0.46838  0.63765  Biso   1.000  Ca
  P224     1.0000 0.20404  0.46838  0.64084  Biso   1.000  P 
  O977     1.0000 0.19200  0.46838  0.62563  Biso   1.000  O 
  O978     1.0000 0.18949  0.46838  0.65471  Biso   1.000  O 
  Ca377    1.0000 0.15599  0.46838  0.62255  Biso   1.000  Ca
  P225     1.0000 0.04995  0.46838  0.64573  Biso   1.000  P 
  O979     1.0000 0.07350  0.46838  0.64551  Biso   1.000  O 
  O980     1.0000 0.04122  0.46838  0.62933  Biso   1.000  O 
  Ca378    1.0000 0.03018  0.40589  0.65033  Biso   1.000  Ca
  P226     1.0000 0.00386  0.40589  0.62248  Biso   1.000  P 
  O981     1.0000 0.14039  0.40589  0.66127  Biso   1.000  O 
  O982     1.0000 0.23060  0.40589  0.61996  Biso   1.000  O 
  Ca379    1.0000 0.12593  0.40589  0.63630  Biso   1.000  Ca
  P227     1.0000 0.17119  0.40589  0.63312  Biso   1.000  P 
  O983     1.0000 0.18322  0.40589  0.64833  Biso   1.000  O 
  O984     1.0000 0.18573  0.40589  0.61924  Biso   1.000  O 
  Ca380    1.0000 0.21922  0.40589  0.65141  Biso   1.000  Ca
  P228     1.0000 0.07528  0.40589  0.62822  Biso   1.000  P 
  O985     1.0000 0.05172  0.40589  0.62845  Biso   1.000  O 
  O986     1.0000 0.08400  0.40589  0.64462  Biso   1.000  O 
  O987     1.0000 0.12511  0.39938  0.60987  Biso   1.000  O 
  O988     1.0000 0.12511  0.46187  0.60987  Biso   1.000  O 
  H75      1.0000 0.12511  0.37920  0.60987  Biso   1.000  H 
  H76      1.0000 0.12522  0.44169  0.60982  Biso   1.000  H 
  O989     1.0000 0.23942  0.49085  0.69670  Biso   1.000  O 
  O990     1.0000 0.09286  0.49085  0.69504  Biso   1.000  O 
  O991     1.0000 0.16805  0.49085  0.70895  Biso   1.000  O 
  O992     1.0000 0.13580  0.42835  0.68569  Biso   1.000  O 
  O993     1.0000 0.03236  0.42835  0.68734  Biso   1.000  O 
  O994     1.0000 0.20717  0.42835  0.67344  Biso   1.000  O 
  O995     1.0000 0.13580  0.38342  0.68569  Biso   1.000  O 
  O996     1.0000 0.03236  0.38342  0.68734  Biso   1.000  O 
  O997     1.0000 0.20717  0.38342  0.67344  Biso   1.000  O 
  O998     1.0000 0.23942  0.44593  0.69670  Biso   1.000  O 
  O999     1.0000 0.09286  0.44593  0.69504  Biso   1.000  O 
  O1000    1.0000 0.16805  0.44593  0.70895  Biso   1.000  O 
  Ca381    1.0000 0.16678  0.49945  0.66408  Biso   1.000  Ca
  Ca382    1.0000 0.08344  0.43696  0.66409  Biso   1.000  Ca
  Ca383    1.0000 0.08344  0.49982  0.66409  Biso   1.000  Ca
  Ca384    1.0000 0.16678  0.43731  0.66408  Biso   1.000  Ca
  Ca385    1.0000 0.22006  0.46838  0.67784  Biso   1.000  Ca
  P229     1.0000 0.24636  0.46838  0.70569  Biso   1.000  P 
  O1001    1.0000 0.10984  0.46838  0.66691  Biso   1.000  O 
  O1002    1.0000 0.01963  0.46838  0.70822  Biso   1.000  O 
  Ca386    1.0000 0.12429  0.46838  0.69187  Biso   1.000  Ca
  P230     1.0000 0.07904  0.46838  0.69506  Biso   1.000  P 
  O1003    1.0000 0.06700  0.46838  0.67985  Biso   1.000  O 
  O1004    1.0000 0.06449  0.46838  0.70893  Biso   1.000  O 
  Ca387    1.0000 0.03099  0.46838  0.67677  Biso   1.000  Ca
  P231     1.0000 0.17495  0.46838  0.69995  Biso   1.000  P 
  O1005    1.0000 0.19850  0.46838  0.69973  Biso   1.000  O 
  O1006    1.0000 0.16622  0.46838  0.68355  Biso   1.000  O 
  Ca388    1.0000 0.15518  0.40589  0.70455  Biso   1.000  Ca
  P232     1.0000 0.12886  0.40589  0.67670  Biso   1.000  P 
  O1007    1.0000 0.01539  0.40589  0.71548  Biso   1.000  O 
  O1008    1.0000 0.10560  0.40589  0.67418  Biso   1.000  O 
  Ca389    1.0000 0.00093  0.40589  0.69052  Biso   1.000  Ca
  P233     1.0000 0.04619  0.40589  0.68733  Biso   1.000  P 
  O1009    1.0000 0.05822  0.40589  0.70255  Biso   1.000  O 
  O1010    1.0000 0.06073  0.40589  0.67346  Biso   1.000  O 
  Ca390    1.0000 0.09422  0.40589  0.70563  Biso   1.000  Ca
  P234     1.0000 0.20028  0.40589  0.68244  Biso   1.000  P 
  O1011    1.0000 0.17672  0.40589  0.68266  Biso   1.000  O 
  O1012    1.0000 0.20900  0.40589  0.69884  Biso   1.000  O 
  O1013    1.0000 0.00011  0.39938  0.66409  Biso   1.000  O 
  O1014    1.0000 0.00011  0.46187  0.66409  Biso   1.000  O 
  H77      1.0000 0.00011  0.37920  0.66409  Biso   1.000  H 
  H78      1.0000 0.00022  0.44169  0.66404  Biso   1.000  H 
  O1015    1.0000 0.11442  0.49085  0.75091  Biso   1.000  O 
  O1016    1.0000 0.21786  0.49085  0.74926  Biso   1.000  O 
  O1017    1.0000 0.04305  0.49085  0.76317  Biso   1.000  O 
  O1018    1.0000 0.01080  0.42835  0.73991  Biso   1.000  O 
  O1019    1.0000 0.15736  0.42835  0.74156  Biso   1.000  O 
  O1020    1.0000 0.08217  0.42835  0.72766  Biso   1.000  O 
  O1021    1.0000 0.01080  0.38342  0.73991  Biso   1.000  O 
  O1022    1.0000 0.15736  0.38342  0.74156  Biso   1.000  O 
  O1023    1.0000 0.08217  0.38342  0.72766  Biso   1.000  O 
  O1024    1.0000 0.11442  0.44593  0.75091  Biso   1.000  O 
  O1025    1.0000 0.21786  0.44593  0.74926  Biso   1.000  O 
  O1026    1.0000 0.04305  0.44593  0.76317  Biso   1.000  O 
  Ca391    1.0000 0.04178  0.49945  0.71830  Biso   1.000  Ca
  Ca392    1.0000 0.20844  0.43696  0.71831  Biso   1.000  Ca
  Ca393    1.0000 0.20844  0.49982  0.71831  Biso   1.000  Ca
  Ca394    1.0000 0.04178  0.43731  0.71830  Biso   1.000  Ca
  Ca395    1.0000 0.09506  0.46838  0.73206  Biso   1.000  Ca
  P235     1.0000 0.12136  0.46838  0.75990  Biso   1.000  P 
  O1027    1.0000 0.23484  0.46838  0.72113  Biso   1.000  O 
  O1028    1.0000 0.14463  0.46838  0.76243  Biso   1.000  O 
  Ca396    1.0000 0.24929  0.46838  0.74609  Biso   1.000  Ca
  P236     1.0000 0.20404  0.46838  0.74928  Biso   1.000  P 
  O1029    1.0000 0.19200  0.46838  0.73407  Biso   1.000  O 
  O1030    1.0000 0.18949  0.46838  0.76315  Biso   1.000  O 
  Ca397    1.0000 0.15599  0.46838  0.73099  Biso   1.000  Ca
  P237     1.0000 0.04995  0.46838  0.75417  Biso   1.000  P 
  O1031    1.0000 0.07350  0.46838  0.75394  Biso   1.000  O 
  O1032    1.0000 0.04122  0.46838  0.73776  Biso   1.000  O 
  Ca398    1.0000 0.03018  0.40589  0.75877  Biso   1.000  Ca
  P238     1.0000 0.00386  0.40589  0.73092  Biso   1.000  P 
  O1033    1.0000 0.14039  0.40589  0.76970  Biso   1.000  O 
  O1034    1.0000 0.23060  0.40589  0.72840  Biso   1.000  O 
  Ca399    1.0000 0.12593  0.40589  0.74474  Biso   1.000  Ca
  P239     1.0000 0.17119  0.40589  0.74155  Biso   1.000  P 
  O1035    1.0000 0.18322  0.40589  0.75677  Biso   1.000  O 
  O1036    1.0000 0.18573  0.40589  0.72767  Biso   1.000  O 
  Ca400    1.0000 0.21922  0.40589  0.75984  Biso   1.000  Ca
  P240     1.0000 0.07528  0.40589  0.73666  Biso   1.000  P 
  O1037    1.0000 0.05172  0.40589  0.73688  Biso   1.000  O 
  O1038    1.0000 0.08400  0.40589  0.75306  Biso   1.000  O 
  O1039    1.0000 0.12511  0.39938  0.71831  Biso   1.000  O 
  O1040    1.0000 0.12511  0.46187  0.71831  Biso   1.000  O 
  H79      1.0000 0.12511  0.37920  0.71831  Biso   1.000  H 
  H80      1.0000 0.12522  0.44169  0.71826  Biso   1.000  H 
  O1041    1.0000 0.23942  0.61585  0.26295  Biso   1.000  O 
  O1042    1.0000 0.09286  0.61585  0.26130  Biso   1.000  O 
  O1043    1.0000 0.16805  0.61585  0.27520  Biso   1.000  O 
  O1044    1.0000 0.13580  0.55335  0.25195  Biso   1.000  O 
  O1045    1.0000 0.03236  0.55335  0.25360  Biso   1.000  O 
  O1046    1.0000 0.20717  0.55335  0.23970  Biso   1.000  O 
  O1047    1.0000 0.13580  0.50842  0.25195  Biso   1.000  O 
  O1048    1.0000 0.03236  0.50842  0.25360  Biso   1.000  O 
  O1049    1.0000 0.20717  0.50842  0.23970  Biso   1.000  O 
  O1050    1.0000 0.23942  0.57093  0.26295  Biso   1.000  O 
  O1051    1.0000 0.09286  0.57093  0.26130  Biso   1.000  O 
  O1052    1.0000 0.16805  0.57093  0.27520  Biso   1.000  O 
  Ca401    1.0000 0.16678  0.62445  0.23034  Biso   1.000  Ca
  Ca402    1.0000 0.08344  0.56196  0.23035  Biso   1.000  Ca
  Ca403    1.0000 0.08344  0.62482  0.23035  Biso   1.000  Ca
  Ca404    1.0000 0.16678  0.56231  0.23034  Biso   1.000  Ca
  Ca405    1.0000 0.22006  0.59338  0.24410  Biso   1.000  Ca
  P241     1.0000 0.24636  0.59338  0.27194  Biso   1.000  P 
  O1053    1.0000 0.10984  0.59338  0.23317  Biso   1.000  O 
  O1054    1.0000 0.01963  0.59338  0.27447  Biso   1.000  O 
  Ca406    1.0000 0.12429  0.59338  0.25813  Biso   1.000  Ca
  P242     1.0000 0.07904  0.59338  0.26132  Biso   1.000  P 
  O1055    1.0000 0.06700  0.59338  0.24611  Biso   1.000  O 
  O1056    1.0000 0.06449  0.59338  0.27519  Biso   1.000  O 
  Ca407    1.0000 0.03099  0.59338  0.24303  Biso   1.000  Ca
  P243     1.0000 0.17495  0.59338  0.26620  Biso   1.000  P 
  O1057    1.0000 0.19850  0.59338  0.26598  Biso   1.000  O 
  O1058    1.0000 0.16622  0.59338  0.24980  Biso   1.000  O 
  Ca408    1.0000 0.15518  0.53089  0.27081  Biso   1.000  Ca
  P244     1.0000 0.12886  0.53089  0.24296  Biso   1.000  P 
  O1059    1.0000 0.01539  0.53089  0.28174  Biso   1.000  O 
  O1060    1.0000 0.10560  0.53089  0.24043  Biso   1.000  O 
  Ca409    1.0000 0.00093  0.53089  0.25677  Biso   1.000  Ca
  P245     1.0000 0.04619  0.53089  0.25359  Biso   1.000  P 
  O1061    1.0000 0.05822  0.53089  0.26880  Biso   1.000  O 
  O1062    1.0000 0.06073  0.53089  0.23971  Biso   1.000  O 
  Ca410    1.0000 0.09422  0.53089  0.27188  Biso   1.000  Ca
  P246     1.0000 0.20028  0.53089  0.24870  Biso   1.000  P 
  O1063    1.0000 0.17672  0.53089  0.24892  Biso   1.000  O 
  O1064    1.0000 0.20900  0.53089  0.26510  Biso   1.000  O 
  O1065    1.0000 0.00011  0.52438  0.23034  Biso   1.000  O 
  O1066    1.0000 0.00011  0.58687  0.23034  Biso   1.000  O 
  H81      1.0000 0.00011  0.50420  0.23034  Biso   1.000  H 
  H82      1.0000 0.00022  0.56669  0.23030  Biso   1.000  H 
  O1067    1.0000 0.11442  0.61585  0.31717  Biso   1.000  O 
  O1068    1.0000 0.21786  0.61585  0.31552  Biso   1.000  O 
  O1069    1.0000 0.04305  0.61585  0.32942  Biso   1.000  O 
  O1070    1.0000 0.01080  0.55335  0.30617  Biso   1.000  O 
  O1071    1.0000 0.15736  0.55335  0.30782  Biso   1.000  O 
  O1072    1.0000 0.08217  0.55335  0.29391  Biso   1.000  O 
  O1073    1.0000 0.01080  0.50842  0.30617  Biso   1.000  O 
  O1074    1.0000 0.15736  0.50842  0.30782  Biso   1.000  O 
  O1075    1.0000 0.08217  0.50842  0.29391  Biso   1.000  O 
  O1076    1.0000 0.11442  0.57093  0.31717  Biso   1.000  O 
  O1077    1.0000 0.21786  0.57093  0.31552  Biso   1.000  O 
  O1078    1.0000 0.04305  0.57093  0.32942  Biso   1.000  O 
  Ca411    1.0000 0.04178  0.62445  0.28456  Biso   1.000  Ca
  Ca412    1.0000 0.20844  0.56196  0.28456  Biso   1.000  Ca
  Ca413    1.0000 0.20844  0.62482  0.28456  Biso   1.000  Ca
  Ca414    1.0000 0.04178  0.56231  0.28456  Biso   1.000  Ca
  Ca415    1.0000 0.09506  0.59338  0.29832  Biso   1.000  Ca
  P247     1.0000 0.12136  0.59338  0.32616  Biso   1.000  P 
  O1079    1.0000 0.23484  0.59338  0.28738  Biso   1.000  O 
  O1080    1.0000 0.14463  0.59338  0.32869  Biso   1.000  O 
  Ca416    1.0000 0.24929  0.59338  0.31234  Biso   1.000  Ca
  P248     1.0000 0.20404  0.59338  0.31554  Biso   1.000  P 
  O1081    1.0000 0.19200  0.59338  0.30033  Biso   1.000  O 
  O1082    1.0000 0.18949  0.59338  0.32941  Biso   1.000  O 
  Ca417    1.0000 0.15599  0.59338  0.29725  Biso   1.000  Ca
  P249     1.0000 0.04995  0.59338  0.32042  Biso   1.000  P 
  O1083    1.0000 0.07350  0.59338  0.32020  Biso   1.000  O 
  O1084    1.0000 0.04122  0.59338  0.30402  Biso   1.000  O 
  Ca418    1.0000 0.03018  0.53089  0.32502  Biso   1.000  Ca
  P250     1.0000 0.00386  0.53089  0.29718  Biso   1.000  P 
  O1085    1.0000 0.14039  0.53089  0.33596  Biso   1.000  O 
  O1086    1.0000 0.23060  0.53089  0.29465  Biso   1.000  O 
  Ca419    1.0000 0.12593  0.53089  0.31099  Biso   1.000  Ca
  P251     1.0000 0.17119  0.53089  0.30781  Biso   1.000  P 
  O1087    1.0000 0.18322  0.53089  0.32302  Biso   1.000  O 
  O1088    1.0000 0.18573  0.53089  0.29393  Biso   1.000  O 
  Ca420    1.0000 0.21922  0.53089  0.32610  Biso   1.000  Ca
  P252     1.0000 0.07528  0.53089  0.30291  Biso   1.000  P 
  O1089    1.0000 0.05172  0.53089  0.30314  Biso   1.000  O 
  O1090    1.0000 0.08400  0.53089  0.31932  Biso   1.000  O 
  O1091    1.0000 0.12511  0.52438  0.28456  Biso   1.000  O 
  O1092    1.0000 0.12511  0.58687  0.28456  Biso   1.000  O 
  H83      1.0000 0.12511  0.50420  0.28456  Biso   1.000  H 
  H84      1.0000 0.12522  0.56669  0.28452  Biso   1.000  H 
  O1093    1.0000 0.23942  0.61585  0.37139  Biso   1.000  O 
  O1094    1.0000 0.09286  0.61585  0.36974  Biso   1.000  O 
  O1095    1.0000 0.16805  0.61585  0.38364  Biso   1.000  O 
  O1096    1.0000 0.13580  0.55335  0.36038  Biso   1.000  O 
  O1097    1.0000 0.03236  0.55335  0.36204  Biso   1.000  O 
  O1098    1.0000 0.20717  0.55335  0.34813  Biso   1.000  O 
  O1099    1.0000 0.13580  0.50842  0.36038  Biso   1.000  O 
  O1100    1.0000 0.03236  0.50842  0.36204  Biso   1.000  O 
  O1101    1.0000 0.20717  0.50842  0.34813  Biso   1.000  O 
  O1102    1.0000 0.23942  0.57093  0.37139  Biso   1.000  O 
  O1103    1.0000 0.09286  0.57093  0.36974  Biso   1.000  O 
  O1104    1.0000 0.16805  0.57093  0.38364  Biso   1.000  O 
  Ca421    1.0000 0.16678  0.62445  0.33877  Biso   1.000  Ca
  Ca422    1.0000 0.08344  0.56196  0.33878  Biso   1.000  Ca
  Ca423    1.0000 0.08344  0.62482  0.33878  Biso   1.000  Ca
  Ca424    1.0000 0.16678  0.56231  0.33877  Biso   1.000  Ca
  Ca425    1.0000 0.22006  0.59338  0.35254  Biso   1.000  Ca
  P253     1.0000 0.24636  0.59338  0.38038  Biso   1.000  P 
  O1105    1.0000 0.10984  0.59338  0.34160  Biso   1.000  O 
  O1106    1.0000 0.01963  0.59338  0.38291  Biso   1.000  O 
  Ca426    1.0000 0.12429  0.59338  0.36656  Biso   1.000  Ca
  P254     1.0000 0.07904  0.59338  0.36975  Biso   1.000  P 
  O1107    1.0000 0.06700  0.59338  0.35454  Biso   1.000  O 
  O1108    1.0000 0.06449  0.59338  0.38362  Biso   1.000  O 
  Ca427    1.0000 0.03099  0.59338  0.35146  Biso   1.000  Ca
  P255     1.0000 0.17495  0.59338  0.37464  Biso   1.000  P 
  O1109    1.0000 0.19850  0.59338  0.37442  Biso   1.000  O 
  O1110    1.0000 0.16622  0.59338  0.35824  Biso   1.000  O 
  Ca428    1.0000 0.15518  0.53089  0.37924  Biso   1.000  Ca
  P256     1.0000 0.12886  0.53089  0.35140  Biso   1.000  P 
  O1111    1.0000 0.01539  0.53089  0.39018  Biso   1.000  O 
  O1112    1.0000 0.10560  0.53089  0.34887  Biso   1.000  O 
  Ca429    1.0000 0.00093  0.53089  0.36521  Biso   1.000  Ca
  P257     1.0000 0.04619  0.53089  0.36203  Biso   1.000  P 
  O1113    1.0000 0.05822  0.53089  0.37724  Biso   1.000  O 
  O1114    1.0000 0.06073  0.53089  0.34815  Biso   1.000  O 
  Ca430    1.0000 0.09422  0.53089  0.38032  Biso   1.000  Ca
  P258     1.0000 0.20028  0.53089  0.35713  Biso   1.000  P 
  O1115    1.0000 0.17672  0.53089  0.35736  Biso   1.000  O 
  O1116    1.0000 0.20900  0.53089  0.37353  Biso   1.000  O 
  O1117    1.0000 0.00011  0.52438  0.33878  Biso   1.000  O 
  O1118    1.0000 0.00011  0.58687  0.33878  Biso   1.000  O 
  H85      1.0000 0.00011  0.50420  0.33878  Biso   1.000  H 
  H86      1.0000 0.00022  0.56669  0.33873  Biso   1.000  H 
  O1119    1.0000 0.11442  0.61585  0.42561  Biso   1.000  O 
  O1120    1.0000 0.21786  0.61585  0.42395  Biso   1.000  O 
  O1121    1.0000 0.04305  0.61585  0.43786  Biso   1.000  O 
  O1122    1.0000 0.01080  0.55335  0.41460  Biso   1.000  O 
  O1123    1.0000 0.15736  0.55335  0.41625  Biso   1.000  O 
  O1124    1.0000 0.08217  0.55335  0.40235  Biso   1.000  O 
  O1125    1.0000 0.01080  0.50842  0.41460  Biso   1.000  O 
  O1126    1.0000 0.15736  0.50842  0.41625  Biso   1.000  O 
  O1127    1.0000 0.08217  0.50842  0.40235  Biso   1.000  O 
  O1128    1.0000 0.11442  0.57093  0.42561  Biso   1.000  O 
  O1129    1.0000 0.21786  0.57093  0.42395  Biso   1.000  O 
  O1130    1.0000 0.04305  0.57093  0.43786  Biso   1.000  O 
  Ca431    1.0000 0.04178  0.62445  0.39299  Biso   1.000  Ca
  Ca432    1.0000 0.20844  0.56196  0.39300  Biso   1.000  Ca
  Ca433    1.0000 0.20844  0.62482  0.39300  Biso   1.000  Ca
  Ca434    1.0000 0.04178  0.56231  0.39299  Biso   1.000  Ca
  Ca435    1.0000 0.09506  0.59338  0.40675  Biso   1.000  Ca
  P259     1.0000 0.12136  0.59338  0.43460  Biso   1.000  P 
  O1131    1.0000 0.23484  0.59338  0.39582  Biso   1.000  O 
  O1132    1.0000 0.14463  0.59338  0.43713  Biso   1.000  O 
  Ca436    1.0000 0.24929  0.59338  0.42078  Biso   1.000  Ca
  P260     1.0000 0.20404  0.59338  0.42397  Biso   1.000  P 
  O1133    1.0000 0.19200  0.59338  0.40876  Biso   1.000  O 
  O1134    1.0000 0.18949  0.59338  0.43784  Biso   1.000  O 
  Ca437    1.0000 0.15599  0.59338  0.40568  Biso   1.000  Ca
  P261     1.0000 0.04995  0.59338  0.42886  Biso   1.000  P 
  O1135    1.0000 0.07350  0.59338  0.42864  Biso   1.000  O 
  O1136    1.0000 0.04122  0.59338  0.41246  Biso   1.000  O 
  Ca438    1.0000 0.03018  0.53089  0.43346  Biso   1.000  Ca
  P262     1.0000 0.00386  0.53089  0.40561  Biso   1.000  P 
  O1137    1.0000 0.14039  0.53089  0.44439  Biso   1.000  O 
  O1138    1.0000 0.23060  0.53089  0.40309  Biso   1.000  O 
  Ca439    1.0000 0.12593  0.53089  0.41943  Biso   1.000  Ca
  P263     1.0000 0.17119  0.53089  0.41624  Biso   1.000  P 
  O1139    1.0000 0.18322  0.53089  0.43146  Biso   1.000  O 
  O1140    1.0000 0.18573  0.53089  0.40237  Biso   1.000  O 
  Ca440    1.0000 0.21922  0.53089  0.43454  Biso   1.000  Ca
  P264     1.0000 0.07528  0.53089  0.41135  Biso   1.000  P 
  O1141    1.0000 0.05172  0.53089  0.41157  Biso   1.000  O 
  O1142    1.0000 0.08400  0.53089  0.42775  Biso   1.000  O 
  O1143    1.0000 0.12511  0.52438  0.39300  Biso   1.000  O 
  O1144    1.0000 0.12511  0.58687  0.39300  Biso   1.000  O 
  H87      1.0000 0.12511  0.50420  0.39300  Biso   1.000  H 
  H88      1.0000 0.12522  0.56669  0.39295  Biso   1.000  H 
  O1145    1.0000 0.23942  0.61585  0.47982  Biso   1.000  O 
  O1146    1.0000 0.09286  0.61585  0.47817  Biso   1.000  O 
  O1147    1.0000 0.16805  0.61585  0.49208  Biso   1.000  O 
  O1148    1.0000 0.13580  0.55335  0.46882  Biso   1.000  O 
  O1149    1.0000 0.03236  0.55335  0.47047  Biso   1.000  O 
  O1150    1.0000 0.20717  0.55335  0.45657  Biso   1.000  O 
  O1151    1.0000 0.13580  0.50842  0.46882  Biso   1.000  O 
  O1152    1.0000 0.03236  0.50842  0.47047  Biso   1.000  O 
  O1153    1.0000 0.20717  0.50842  0.45657  Biso   1.000  O 
  O1154    1.0000 0.23942  0.57093  0.47982  Biso   1.000  O 
  O1155    1.0000 0.09286  0.57093  0.47817  Biso   1.000  O 
  O1156    1.0000 0.16805  0.57093  0.49208  Biso   1.000  O 
  Ca441    1.0000 0.16678  0.62445  0.44721  Biso   1.000  Ca
  Ca442    1.0000 0.08344  0.56196  0.44722  Biso   1.000  Ca
  Ca443    1.0000 0.08344  0.62482  0.44722  Biso   1.000  Ca
  Ca444    1.0000 0.16678  0.56231  0.44721  Biso   1.000  Ca
  Ca445    1.0000 0.22006  0.59338  0.46097  Biso   1.000  Ca
  P265     1.0000 0.24636  0.59338  0.48881  Biso   1.000  P 
  O1157    1.0000 0.10984  0.59338  0.45004  Biso   1.000  O 
  O1158    1.0000 0.01963  0.59338  0.49134  Biso   1.000  O 
  Ca446    1.0000 0.12429  0.59338  0.47500  Biso   1.000  Ca
  P266     1.0000 0.07904  0.59338  0.47819  Biso   1.000  P 
  O1159    1.0000 0.06700  0.59338  0.46298  Biso   1.000  O 
  O1160    1.0000 0.06449  0.59338  0.49206  Biso   1.000  O 
  Ca447    1.0000 0.03099  0.59338  0.45990  Biso   1.000  Ca
  P267     1.0000 0.17495  0.59338  0.48308  Biso   1.000  P 
  O1161    1.0000 0.19850  0.59338  0.48285  Biso   1.000  O 
  O1162    1.0000 0.16622  0.59338  0.46667  Biso   1.000  O 
  Ca448    1.0000 0.15518  0.53089  0.48768  Biso   1.000  Ca
  P268     1.0000 0.12886  0.53089  0.45983  Biso   1.000  P 
  O1163    1.0000 0.01539  0.53089  0.49861  Biso   1.000  O 
  O1164    1.0000 0.10560  0.53089  0.45731  Biso   1.000  O 
  Ca449    1.0000 0.00093  0.53089  0.47365  Biso   1.000  Ca
  P269     1.0000 0.04619  0.53089  0.47046  Biso   1.000  P 
  O1165    1.0000 0.05822  0.53089  0.48568  Biso   1.000  O 
  O1166    1.0000 0.06073  0.53089  0.45658  Biso   1.000  O 
  Ca450    1.0000 0.09422  0.53089  0.48875  Biso   1.000  Ca
  P270     1.0000 0.20028  0.53089  0.46557  Biso   1.000  P 
  O1167    1.0000 0.17672  0.53089  0.46579  Biso   1.000  O 
  O1168    1.0000 0.20900  0.53089  0.48197  Biso   1.000  O 
  O1169    1.0000 0.00011  0.52438  0.44722  Biso   1.000  O 
  O1170    1.0000 0.00011  0.58687  0.44722  Biso   1.000  O 
  H89      1.0000 0.00011  0.50420  0.44722  Biso   1.000  H 
  H90      1.0000 0.00022  0.56669  0.44717  Biso   1.000  H 
  O1171    1.0000 0.11442  0.61585  0.53404  Biso   1.000  O 
  O1172    1.0000 0.21786  0.61585  0.53239  Biso   1.000  O 
  O1173    1.0000 0.04305  0.61585  0.54629  Biso   1.000  O 
  O1174    1.0000 0.01080  0.55335  0.52304  Biso   1.000  O 
  O1175    1.0000 0.15736  0.55335  0.52469  Biso   1.000  O 
  O1176    1.0000 0.08217  0.55335  0.51079  Biso   1.000  O 
  O1177    1.0000 0.01080  0.50842  0.52304  Biso   1.000  O 
  O1178    1.0000 0.15736  0.50842  0.52469  Biso   1.000  O 
  O1179    1.0000 0.08217  0.50842  0.51079  Biso   1.000  O 
  O1180    1.0000 0.11442  0.57093  0.53404  Biso   1.000  O 
  O1181    1.0000 0.21786  0.57093  0.53239  Biso   1.000  O 
  O1182    1.0000 0.04305  0.57093  0.54629  Biso   1.000  O 
  Ca451    1.0000 0.04178  0.62445  0.50143  Biso   1.000  Ca
  Ca452    1.0000 0.20844  0.56196  0.50144  Biso   1.000  Ca
  Ca453    1.0000 0.20844  0.62482  0.50144  Biso   1.000  Ca
  Ca454    1.0000 0.04178  0.56231  0.50143  Biso   1.000  Ca
  Ca455    1.0000 0.09506  0.59338  0.51519  Biso   1.000  Ca
  P271     1.0000 0.12136  0.59338  0.54303  Biso   1.000  P 
  O1183    1.0000 0.23484  0.59338  0.50426  Biso   1.000  O 
  O1184    1.0000 0.14463  0.59338  0.54556  Biso   1.000  O 
  Ca456    1.0000 0.24929  0.59338  0.52922  Biso   1.000  Ca
  P272     1.0000 0.20404  0.59338  0.53241  Biso   1.000  P 
  O1185    1.0000 0.19200  0.59338  0.51720  Biso   1.000  O 
  O1186    1.0000 0.18949  0.59338  0.54628  Biso   1.000  O 
  Ca457    1.0000 0.15599  0.59338  0.51412  Biso   1.000  Ca
  P273     1.0000 0.04995  0.59338  0.53729  Biso   1.000  P 
  O1187    1.0000 0.07350  0.59338  0.53707  Biso   1.000  O 
  O1188    1.0000 0.04122  0.59338  0.52089  Biso   1.000  O 
  Ca458    1.0000 0.03018  0.53089  0.54190  Biso   1.000  Ca
  P274     1.0000 0.00386  0.53089  0.51405  Biso   1.000  P 
  O1189    1.0000 0.14039  0.53089  0.55283  Biso   1.000  O 
  O1190    1.0000 0.23060  0.53089  0.51152  Biso   1.000  O 
  Ca459    1.0000 0.12593  0.53089  0.52786  Biso   1.000  Ca
  P275     1.0000 0.17119  0.53089  0.52468  Biso   1.000  P 
  O1191    1.0000 0.18322  0.53089  0.53989  Biso   1.000  O 
  O1192    1.0000 0.18573  0.53089  0.51080  Biso   1.000  O 
  Ca460    1.0000 0.21922  0.53089  0.54297  Biso   1.000  Ca
  P276     1.0000 0.07528  0.53089  0.51979  Biso   1.000  P 
  O1193    1.0000 0.05172  0.53089  0.52001  Biso   1.000  O 
  O1194    1.0000 0.08400  0.53089  0.53619  Biso   1.000  O 
  O1195    1.0000 0.12511  0.52438  0.50143  Biso   1.000  O 
  O1196    1.0000 0.12511  0.58687  0.50143  Biso   1.000  O 
  H91      1.0000 0.12511  0.50420  0.50143  Biso   1.000  H 
  H92      1.0000 0.12522  0.56669  0.50139  Biso   1.000  H 
  O1197    1.0000 0.23942  0.61585  0.58826  Biso   1.000  O 
  O1198    1.0000 0.09286  0.61585  0.58661  Biso   1.000  O 
  O1199    1.0000 0.16805  0.61585  0.60051  Biso   1.000  O 
  O1200    1.0000 0.13580  0.55335  0.57726  Biso   1.000  O 
  O1201    1.0000 0.03236  0.55335  0.57891  Biso   1.000  O 
  O1202    1.0000 0.20717  0.55335  0.56500  Biso   1.000  O 
  O1203    1.0000 0.13580  0.50842  0.57726  Biso   1.000  O 
  O1204    1.0000 0.03236  0.50842  0.57891  Biso   1.000  O 
  O1205    1.0000 0.20717  0.50842  0.56500  Biso   1.000  O 
  O1206    1.0000 0.23942  0.57093  0.58826  Biso   1.000  O 
  O1207    1.0000 0.09286  0.57093  0.58661  Biso   1.000  O 
  O1208    1.0000 0.16805  0.57093  0.60051  Biso   1.000  O 
  Ca461    1.0000 0.16678  0.62445  0.55565  Biso   1.000  Ca
  Ca462    1.0000 0.08344  0.56196  0.55565  Biso   1.000  Ca
  Ca463    1.0000 0.08344  0.62482  0.55565  Biso   1.000  Ca
  Ca464    1.0000 0.16678  0.56231  0.55565  Biso   1.000  Ca
  Ca465    1.0000 0.22006  0.59338  0.56941  Biso   1.000  Ca
  P277     1.0000 0.24636  0.59338  0.59725  Biso   1.000  P 
  O1209    1.0000 0.10984  0.59338  0.55847  Biso   1.000  O 
  O1210    1.0000 0.01963  0.59338  0.59978  Biso   1.000  O 
  Ca466    1.0000 0.12429  0.59338  0.58343  Biso   1.000  Ca
  P278     1.0000 0.07904  0.59338  0.58662  Biso   1.000  P 
  O1211    1.0000 0.06700  0.59338  0.57141  Biso   1.000  O 
  O1212    1.0000 0.06449  0.59338  0.60050  Biso   1.000  O 
  Ca467    1.0000 0.03099  0.59338  0.56834  Biso   1.000  Ca
  P279     1.0000 0.17495  0.59338  0.59151  Biso   1.000  P 
  O1213    1.0000 0.19850  0.59338  0.59129  Biso   1.000  O 
  O1214    1.0000 0.16622  0.59338  0.57511  Biso   1.000  O 
  Ca468    1.0000 0.15518  0.53089  0.59611  Biso   1.000  Ca
  P280     1.0000 0.12886  0.53089  0.56827  Biso   1.000  P 
  O1215    1.0000 0.01539  0.53089  0.60705  Biso   1.000  O 
  O1216    1.0000 0.10560  0.53089  0.56574  Biso   1.000  O 
  Ca469    1.0000 0.00093  0.53089  0.58208  Biso   1.000  Ca
  P281     1.0000 0.04619  0.53089  0.57890  Biso   1.000  P 
  O1217    1.0000 0.05822  0.53089  0.59411  Biso   1.000  O 
  O1218    1.0000 0.06073  0.53089  0.56502  Biso   1.000  O 
  Ca470    1.0000 0.09422  0.53089  0.59719  Biso   1.000  Ca
  P282     1.0000 0.20028  0.53089  0.57400  Biso   1.000  P 
  O1219    1.0000 0.17672  0.53089  0.57423  Biso   1.000  O 
  O1220    1.0000 0.20900  0.53089  0.59041  Biso   1.000  O 
  O1221    1.0000 0.00011  0.52438  0.55565  Biso   1.000  O 
  O1222    1.0000 0.00011  0.58687  0.55565  Biso   1.000  O 
  H93      1.0000 0.00011  0.50420  0.55565  Biso   1.000  H 
  H94      1.0000 0.00022  0.56669  0.55561  Biso   1.000  H 
  O1223    1.0000 0.11442  0.61585  0.64248  Biso   1.000  O 
  O1224    1.0000 0.21786  0.61585  0.64083  Biso   1.000  O 
  O1225    1.0000 0.04305  0.61585  0.65473  Biso   1.000  O 
  O1226    1.0000 0.01080  0.55335  0.63147  Biso   1.000  O 
  O1227    1.0000 0.15736  0.55335  0.63313  Biso   1.000  O 
  O1228    1.0000 0.08217  0.55335  0.61922  Biso   1.000  O 
  O1229    1.0000 0.01080  0.50842  0.63147  Biso   1.000  O 
  O1230    1.0000 0.15736  0.50842  0.63313  Biso   1.000  O 
  O1231    1.0000 0.08217  0.50842  0.61922  Biso   1.000  O 
  O1232    1.0000 0.11442  0.57093  0.64248  Biso   1.000  O 
  O1233    1.0000 0.21786  0.57093  0.64083  Biso   1.000  O 
  O1234    1.0000 0.04305  0.57093  0.65473  Biso   1.000  O 
  Ca471    1.0000 0.04178  0.62445  0.60986  Biso   1.000  Ca
  Ca472    1.0000 0.20844  0.56196  0.60987  Biso   1.000  Ca
  Ca473    1.0000 0.20844  0.62482  0.60987  Biso   1.000  Ca
  Ca474    1.0000 0.04178  0.56231  0.60986  Biso   1.000  Ca
  Ca475    1.0000 0.09506  0.59338  0.62363  Biso   1.000  Ca
  P283     1.0000 0.12136  0.59338  0.65147  Biso   1.000  P 
  O1235    1.0000 0.23484  0.59338  0.61269  Biso   1.000  O 
  O1236    1.0000 0.14463  0.59338  0.65400  Biso   1.000  O 
  Ca476    1.0000 0.24929  0.59338  0.63765  Biso   1.000  Ca
  P284     1.0000 0.20404  0.59338  0.64084  Biso   1.000  P 
  O1237    1.0000 0.19200  0.59338  0.62563  Biso   1.000  O 
  O1238    1.0000 0.18949  0.59338  0.65471  Biso   1.000  O 
  Ca477    1.0000 0.15599  0.59338  0.62255  Biso   1.000  Ca
  P285     1.0000 0.04995  0.59338  0.64573  Biso   1.000  P 
  O1239    1.0000 0.07350  0.59338  0.64551  Biso   1.000  O 
  O1240    1.0000 0.04122  0.59338  0.62933  Biso   1.000  O 
  Ca478    1.0000 0.03018  0.53089  0.65033  Biso   1.000  Ca
  P286     1.0000 0.00386  0.53089  0.62248  Biso   1.000  P 
  O1241    1.0000 0.14039  0.53089  0.66127  Biso   1.000  O 
  O1242    1.0000 0.23060  0.53089  0.61996  Biso   1.000  O 
  Ca479    1.0000 0.12593  0.53089  0.63630  Biso   1.000  Ca
  P287     1.0000 0.17119  0.53089  0.63312  Biso   1.000  P 
  O1243    1.0000 0.18322  0.53089  0.64833  Biso   1.000  O 
  O1244    1.0000 0.18573  0.53089  0.61924  Biso   1.000  O 
  Ca480    1.0000 0.21922  0.53089  0.65141  Biso   1.000  Ca
  P288     1.0000 0.07528  0.53089  0.62822  Biso   1.000  P 
  O1245    1.0000 0.05172  0.53089  0.62845  Biso   1.000  O 
  O1246    1.0000 0.08400  0.53089  0.64462  Biso   1.000  O 
  O1247    1.0000 0.12511  0.52438  0.60987  Biso   1.000  O 
  O1248    1.0000 0.12511  0.58687  0.60987  Biso   1.000  O 
  H95      1.0000 0.12511  0.50420  0.60987  Biso   1.000  H 
  H96      1.0000 0.12522  0.56669  0.60982  Biso   1.000  H 
  O1249    1.0000 0.23942  0.61585  0.69670  Biso   1.000  O 
  O1250    1.0000 0.09286  0.61585  0.69504  Biso   1.000  O 
  O1251    1.0000 0.16805  0.61585  0.70895  Biso   1.000  O 
  O1252    1.0000 0.13580  0.55335  0.68569  Biso   1.000  O 
  O1253    1.0000 0.03236  0.55335  0.68734  Biso   1.000  O 
  O1254    1.0000 0.20717  0.55335  0.67344  Biso   1.000  O 
  O1255    1.0000 0.13580  0.50842  0.68569  Biso   1.000  O 
  O1256    1.0000 0.03236  0.50842  0.68734  Biso   1.000  O 
  O1257    1.0000 0.20717  0.50842  0.67344  Biso   1.000  O 
  O1258    1.0000 0.23942  0.57093  0.69670  Biso   1.000  O 
  O1259    1.0000 0.09286  0.57093  0.69504  Biso   1.000  O 
  O1260    1.0000 0.16805  0.57093  0.70895  Biso   1.000  O 
  Ca481    1.0000 0.16678  0.62445  0.66408  Biso   1.000  Ca
  Ca482    1.0000 0.08344  0.56196  0.66409  Biso   1.000  Ca
  Ca483    1.0000 0.08344  0.62482  0.66409  Biso   1.000  Ca
  Ca484    1.0000 0.16678  0.56231  0.66408  Biso   1.000  Ca
  Ca485    1.0000 0.22006  0.59338  0.67784  Biso   1.000  Ca
  P289     1.0000 0.24636  0.59338  0.70569  Biso   1.000  P 
  O1261    1.0000 0.10984  0.59338  0.66691  Biso   1.000  O 
  O1262    1.0000 0.01963  0.59338  0.70822  Biso   1.000  O 
  Ca486    1.0000 0.12429  0.59338  0.69187  Biso   1.000  Ca
  P290     1.0000 0.07904  0.59338  0.69506  Biso   1.000  P 
  O1263    1.0000 0.06700  0.59338  0.67985  Biso   1.000  O 
  O1264    1.0000 0.06449  0.59338  0.70893  Biso   1.000  O 
  Ca487    1.0000 0.03099  0.59338  0.67677  Biso   1.000  Ca
  P291     1.0000 0.17495  0.59338  0.69995  Biso   1.000  P 
  O1265    1.0000 0.19850  0.59338  0.69973  Biso   1.000  O 
  O1266    1.0000 0.16622  0.59338  0.68355  Biso   1.000  O 
  Ca488    1.0000 0.15518  0.53089  0.70455  Biso   1.000  Ca
  P292     1.0000 0.12886  0.53089  0.67670  Biso   1.000  P 
  O1267    1.0000 0.01539  0.53089  0.71548  Biso   1.000  O 
  O1268    1.0000 0.10560  0.53089  0.67418  Biso   1.000  O 
  Ca489    1.0000 0.00093  0.53089  0.69052  Biso   1.000  Ca
  P293     1.0000 0.04619  0.53089  0.68733  Biso   1.000  P 
  O1269    1.0000 0.05822  0.53089  0.70255  Biso   1.000  O 
  O1270    1.0000 0.06073  0.53089  0.67346  Biso   1.000  O 
  Ca490    1.0000 0.09422  0.53089  0.70563  Biso   1.000  Ca
  P294     1.0000 0.20028  0.53089  0.68244  Biso   1.000  P 
  O1271    1.0000 0.17672  0.53089  0.68266  Biso   1.000  O 
  O1272    1.0000 0.20900  0.53089  0.69884  Biso   1.000  O 
  O1273    1.0000 0.00011  0.52438  0.66409  Biso   1.000  O 
  O1274    1.0000 0.00011  0.58687  0.66409  Biso   1.000  O 
  H97      1.0000 0.00011  0.50420  0.66409  Biso   1.000  H 
  H98      1.0000 0.00022  0.56669  0.66404  Biso   1.000  H 
  O1275    1.0000 0.11442  0.61585  0.75091  Biso   1.000  O 
  O1276    1.0000 0.21786  0.61585  0.74926  Biso   1.000  O 
  O1277    1.0000 0.04305  0.61585  0.76317  Biso   1.000  O 
  O1278    1.0000 0.01080  0.55335  0.73991  Biso   1.000  O 
  O1279    1.0000 0.15736  0.55335  0.74156  Biso   1.000  O 
  O1280    1.0000 0.08217  0.55335  0.72766  Biso   1.000  O 
  O1281    1.0000 0.01080  0.50842  0.73991  Biso   1.000  O 
  O1282    1.0000 0.15736  0.50842  0.74156  Biso   1.000  O 
  O1283    1.0000 0.08217  0.50842  0.72766  Biso   1.000  O 
  O1284    1.0000 0.11442  0.57093  0.75091  Biso   1.000  O 
  O1285    1.0000 0.21786  0.57093  0.74926  Biso   1.000  O 
  O1286    1.0000 0.04305  0.57093  0.76317  Biso   1.000  O 
  Ca491    1.0000 0.04178  0.62445  0.71830  Biso   1.000  Ca
  Ca492    1.0000 0.20844  0.56196  0.71831  Biso   1.000  Ca
  Ca493    1.0000 0.20844  0.62482  0.71831  Biso   1.000  Ca
  Ca494    1.0000 0.04178  0.56231  0.71830  Biso   1.000  Ca
  Ca495    1.0000 0.09506  0.59338  0.73206  Biso   1.000  Ca
  P295     1.0000 0.12136  0.59338  0.75990  Biso   1.000  P 
  O1287    1.0000 0.23484  0.59338  0.72113  Biso   1.000  O 
  O1288    1.0000 0.14463  0.59338  0.76243  Biso   1.000  O 
  Ca496    1.0000 0.24929  0.59338  0.74609  Biso   1.000  Ca
  P296     1.0000 0.20404  0.59338  0.74928  Biso   1.000  P 
  O1289    1.0000 0.19200  0.59338  0.73407  Biso   1.000  O 
  O1290    1.0000 0.18949  0.59338  0.76315  Biso   1.000  O 
  Ca497    1.0000 0.15599  0.59338  0.73099  Biso   1.000  Ca
  P297     1.0000 0.04995  0.59338  0.75417  Biso   1.000  P 
  O1291    1.0000 0.07350  0.59338  0.75394  Biso   1.000  O 
  O1292    1.0000 0.04122  0.59338  0.73776  Biso   1.000  O 
  Ca498    1.0000 0.03018  0.53089  0.75877  Biso   1.000  Ca
  P298     1.0000 0.00386  0.53089  0.73092  Biso   1.000  P 
  O1293    1.0000 0.14039  0.53089  0.76970  Biso   1.000  O 
  O1294    1.0000 0.23060  0.53089  0.72840  Biso   1.000  O 
  Ca499    1.0000 0.12593  0.53089  0.74474  Biso   1.000  Ca
  P299     1.0000 0.17119  0.53089  0.74155  Biso   1.000  P 
  O1295    1.0000 0.18322  0.53089  0.75677  Biso   1.000  O 
  O1296    1.0000 0.18573  0.53089  0.72767  Biso   1.000  O 
  Ca500    1.0000 0.21922  0.53089  0.75984  Biso   1.000  Ca
  P300     1.0000 0.07528  0.53089  0.73666  Biso   1.000  P 
  O1297    1.0000 0.05172  0.53089  0.73688  Biso   1.000  O 
  O1298    1.0000 0.08400  0.53089  0.75306  Biso   1.000  O 
  O1299    1.0000 0.12511  0.52438  0.71831  Biso   1.000  O 
  O1300    1.0000 0.12511  0.58687  0.71831  Biso   1.000  O 
  H99      1.0000 0.12511  0.50420  0.71831  Biso   1.000  H 
  H100     1.0000 0.12522  0.56669  0.71826  Biso   1.000  H 
  O1301    1.0000 0.23942  0.74085  0.26295  Biso   1.000  O 
  O1302    1.0000 0.09286  0.74085  0.26130  Biso   1.000  O 
  O1303    1.0000 0.16805  0.74085  0.27520  Biso   1.000  O 
  O1304    1.0000 0.13580  0.67835  0.25195  Biso   1.000  O 
  O1305    1.0000 0.03236  0.67835  0.25360  Biso   1.000  O 
  O1306    1.0000 0.20717  0.67835  0.23970  Biso   1.000  O 
  O1307    1.0000 0.13580  0.63342  0.25195  Biso   1.000  O 
  O1308    1.0000 0.03236  0.63342  0.25360  Biso   1.000  O 
  O1309    1.0000 0.20717  0.63342  0.23970  Biso   1.000  O 
  O1310    1.0000 0.23942  0.69593  0.26295  Biso   1.000  O 
  O1311    1.0000 0.09286  0.69593  0.26130  Biso   1.000  O 
  O1312    1.0000 0.16805  0.69593  0.27520  Biso   1.000  O 
  Ca501    1.0000 0.16678  0.74945  0.23034  Biso   1.000  Ca
  Ca502    1.0000 0.08344  0.68696  0.23035  Biso   1.000  Ca
  Ca503    1.0000 0.08344  0.74982  0.23035  Biso   1.000  Ca
  Ca504    1.0000 0.16678  0.68731  0.23034  Biso   1.000  Ca
  Ca505    1.0000 0.22006  0.71838  0.24410  Biso   1.000  Ca
  P301     1.0000 0.24636  0.71838  0.27194  Biso   1.000  P 
  O1313    1.0000 0.10984  0.71838  0.23317  Biso   1.000  O 
  O1314    1.0000 0.01963  0.71838  0.27447  Biso   1.000  O 
  Ca506    1.0000 0.12429  0.71838  0.25813  Biso   1.000  Ca
  P302     1.0000 0.07904  0.71838  0.26132  Biso   1.000  P 
  O1315    1.0000 0.06700  0.71838  0.24611  Biso   1.000  O 
  O1316    1.0000 0.06449  0.71838  0.27519  Biso   1.000  O 
  Ca507    1.0000 0.03099  0.71838  0.24303  Biso   1.000  Ca
  P303     1.0000 0.17495  0.71838  0.26620  Biso   1.000  P 
  O1317    1.0000 0.19850  0.71838  0.26598  Biso   1.000  O 
  O1318    1.0000 0.16622  0.71838  0.24980  Biso   1.000  O 
  Ca508    1.0000 0.15518  0.65589  0.27081  Biso   1.000  Ca
  P304     1.0000 0.12886  0.65589  0.24296  Biso   1.000  P 
  O1319    1.0000 0.01539  0.65589  0.28174  Biso   1.000  O 
  O1320    1.0000 0.10560  0.65589  0.24043  Biso   1.000  O 
  Ca509    1.0000 0.00093  0.65589  0.25677  Biso   1.000  Ca
  P305     1.0000 0.04619  0.65589  0.25359  Biso   1.000  P 
  O1321    1.0000 0.05822  0.65589  0.26880  Biso   1.000  O 
  O1322    1.0000 0.06073  0.65589  0.23971  Biso   1.000  O 
  Ca510    1.0000 0.09422  0.65589  0.27188  Biso   1.000  Ca
  P306     1.0000 0.20028  0.65589  0.24870  Biso   1.000  P 
  O1323    1.0000 0.17672  0.65589  0.24892  Biso   1.000  O 
  O1324    1.0000 0.20900  0.65589  0.26510  Biso   1.000  O 
  O1325    1.0000 0.00011  0.64938  0.23034  Biso   1.000  O 
  O1326    1.0000 0.00011  0.71187  0.23034  Biso   1.000  O 
  H101     1.0000 0.00011  0.62920  0.23034  Biso   1.000  H 
  H102     1.0000 0.00022  0.69169  0.23030  Biso   1.000  H 
  O1327    1.0000 0.11442  0.74085  0.31717  Biso   1.000  O 
  O1328    1.0000 0.21786  0.74085  0.31552  Biso   1.000  O 
  O1329    1.0000 0.04305  0.74085  0.32942  Biso   1.000  O 
  O1330    1.0000 0.01080  0.67835  0.30617  Biso   1.000  O 
  O1331    1.0000 0.15736  0.67835  0.30782  Biso   1.000  O 
  O1332    1.0000 0.08217  0.67835  0.29391  Biso   1.000  O 
  O1333    1.0000 0.01080  0.63342  0.30617  Biso   1.000  O 
  O1334    1.0000 0.15736  0.63342  0.30782  Biso   1.000  O 
  O1335    1.0000 0.08217  0.63342  0.29391  Biso   1.000  O 
  O1336    1.0000 0.11442  0.69593  0.31717  Biso   1.000  O 
  O1337    1.0000 0.21786  0.69593  0.31552  Biso   1.000  O 
  O1338    1.0000 0.04305  0.69593  0.32942  Biso   1.000  O 
  Ca511    1.0000 0.04178  0.74945  0.28456  Biso   1.000  Ca
  Ca512    1.0000 0.20844  0.68696  0.28456  Biso   1.000  Ca
  Ca513    1.0000 0.20844  0.74982  0.28456  Biso   1.000  Ca
  Ca514    1.0000 0.04178  0.68731  0.28456  Biso   1.000  Ca
  Ca515    1.0000 0.09506  0.71838  0.29832  Biso   1.000  Ca
  P307     1.0000 0.12136  0.71838  0.32616  Biso   1.000  P 
  O1339    1.0000 0.23484  0.71838  0.28738  Biso   1.000  O 
  O1340    1.0000 0.14463  0.71838  0.32869  Biso   1.000  O 
  Ca516    1.0000 0.24929  0.71838  0.31234  Biso   1.000  Ca
  P308     1.0000 0.20404  0.71838  0.31554  Biso   1.000  P 
  O1341    1.0000 0.19200  0.71838  0.30033  Biso   1.000  O 
  O1342    1.0000 0.18949  0.71838  0.32941  Biso   1.000  O 
  Ca517    1.0000 0.15599  0.71838  0.29725  Biso   1.000  Ca
  P309     1.0000 0.04995  0.71838  0.32042  Biso   1.000  P 
  O1343    1.0000 0.07350  0.71838  0.32020  Biso   1.000  O 
  O1344    1.0000 0.04122  0.71838  0.30402  Biso   1.000  O 
  Ca518    1.0000 0.03018  0.65589  0.32502  Biso   1.000  Ca
  P310     1.0000 0.00386  0.65589  0.29718  Biso   1.000  P 
  O1345    1.0000 0.14039  0.65589  0.33596  Biso   1.000  O 
  O1346    1.0000 0.23060  0.65589  0.29465  Biso   1.000  O 
  Ca519    1.0000 0.12593  0.65589  0.31099  Biso   1.000  Ca
  P311     1.0000 0.17119  0.65589  0.30781  Biso   1.000  P 
  O1347    1.0000 0.18322  0.65589  0.32302  Biso   1.000  O 
  O1348    1.0000 0.18573  0.65589  0.29393  Biso   1.000  O 
  Ca520    1.0000 0.21922  0.65589  0.32610  Biso   1.000  Ca
  P312     1.0000 0.07528  0.65589  0.30291  Biso   1.000  P 
  O1349    1.0000 0.05172  0.65589  0.30314  Biso   1.000  O 
  O1350    1.0000 0.08400  0.65589  0.31932  Biso   1.000  O 
  O1351    1.0000 0.12511  0.64938  0.28456  Biso   1.000  O 
  O1352    1.0000 0.12511  0.71187  0.28456  Biso   1.000  O 
  H103     1.0000 0.12511  0.62920  0.28456  Biso   1.000  H 
  H104     1.0000 0.12522  0.69169  0.28452  Biso   1.000  H 
  O1353    1.0000 0.23942  0.74085  0.37139  Biso   1.000  O 
  O1354    1.0000 0.09286  0.74085  0.36974  Biso   1.000  O 
  O1355    1.0000 0.16805  0.74085  0.38364  Biso   1.000  O 
  O1356    1.0000 0.13580  0.67835  0.36038  Biso   1.000  O 
  O1357    1.0000 0.03236  0.67835  0.36204  Biso   1.000  O 
  O1358    1.0000 0.20717  0.67835  0.34813  Biso   1.000  O 
  O1359    1.0000 0.13580  0.63342  0.36038  Biso   1.000  O 
  O1360    1.0000 0.03236  0.63342  0.36204  Biso   1.000  O 
  O1361    1.0000 0.20717  0.63342  0.34813  Biso   1.000  O 
  O1362    1.0000 0.23942  0.69593  0.37139  Biso   1.000  O 
  O1363    1.0000 0.09286  0.69593  0.36974  Biso   1.000  O 
  O1364    1.0000 0.16805  0.69593  0.38364  Biso   1.000  O 
  Ca521    1.0000 0.16678  0.74945  0.33877  Biso   1.000  Ca
  Ca522    1.0000 0.08344  0.68696  0.33878  Biso   1.000  Ca
  Ca523    1.0000 0.08344  0.74982  0.33878  Biso   1.000  Ca
  Ca524    1.0000 0.16678  0.68731  0.33877  Biso   1.000  Ca
  Ca525    1.0000 0.22006  0.71838  0.35254  Biso   1.000  Ca
  P313     1.0000 0.24636  0.71838  0.38038  Biso   1.000  P 
  O1365    1.0000 0.10984  0.71838  0.34160  Biso   1.000  O 
  O1366    1.0000 0.01963  0.71838  0.38291  Biso   1.000  O 
  Ca526    1.0000 0.12429  0.71838  0.36656  Biso   1.000  Ca
  P314     1.0000 0.07904  0.71838  0.36975  Biso   1.000  P 
  O1367    1.0000 0.06700  0.71838  0.35454  Biso   1.000  O 
  O1368    1.0000 0.06449  0.71838  0.38362  Biso   1.000  O 
  Ca527    1.0000 0.03099  0.71838  0.35146  Biso   1.000  Ca
  P315     1.0000 0.17495  0.71838  0.37464  Biso   1.000  P 
  O1369    1.0000 0.19850  0.71838  0.37442  Biso   1.000  O 
  O1370    1.0000 0.16622  0.71838  0.35824  Biso   1.000  O 
  Ca528    1.0000 0.15518  0.65589  0.37924  Biso   1.000  Ca
  P316     1.0000 0.12886  0.65589  0.35140  Biso   1.000  P 
  O1371    1.0000 0.01539  0.65589  0.39018  Biso   1.000  O 
  O1372    1.0000 0.10560  0.65589  0.34887  Biso   1.000  O 
  Ca529    1.0000 0.00093  0.65589  0.36521  Biso   1.000  Ca
  P317     1.0000 0.04619  0.65589  0.36203  Biso   1.000  P 
  O1373    1.0000 0.05822  0.65589  0.37724  Biso   1.000  O 
  O1374    1.0000 0.06073  0.65589  0.34815  Biso   1.000  O 
  Ca530    1.0000 0.09422  0.65589  0.38032  Biso   1.000  Ca
  P318     1.0000 0.20028  0.65589  0.35713  Biso   1.000  P 
  O1375    1.0000 0.17672  0.65589  0.35736  Biso   1.000  O 
  O1376    1.0000 0.20900  0.65589  0.37353  Biso   1.000  O 
  O1377    1.0000 0.00011  0.64938  0.33878  Biso   1.000  O 
  O1378    1.0000 0.00011  0.71187  0.33878  Biso   1.000  O 
  H105     1.0000 0.00011  0.62920  0.33878  Biso   1.000  H 
  H106     1.0000 0.00022  0.69169  0.33873  Biso   1.000  H 
  O1379    1.0000 0.11442  0.74085  0.42561  Biso   1.000  O 
  O1380    1.0000 0.21786  0.74085  0.42395  Biso   1.000  O 
  O1381    1.0000 0.04305  0.74085  0.43786  Biso   1.000  O 
  O1382    1.0000 0.01080  0.67835  0.41460  Biso   1.000  O 
  O1383    1.0000 0.15736  0.67835  0.41625  Biso   1.000  O 
  O1384    1.0000 0.08217  0.67835  0.40235  Biso   1.000  O 
  O1385    1.0000 0.01080  0.63342  0.41460  Biso   1.000  O 
  O1386    1.0000 0.15736  0.63342  0.41625  Biso   1.000  O 
  O1387    1.0000 0.08217  0.63342  0.40235  Biso   1.000  O 
  O1388    1.0000 0.11442  0.69593  0.42561  Biso   1.000  O 
  O1389    1.0000 0.21786  0.69593  0.42395  Biso   1.000  O 
  O1390    1.0000 0.04305  0.69593  0.43786  Biso   1.000  O 
  Ca531    1.0000 0.04178  0.74945  0.39299  Biso   1.000  Ca
  Ca532    1.0000 0.20844  0.68696  0.39300  Biso   1.000  Ca
  Ca533    1.0000 0.20844  0.74982  0.39300  Biso   1.000  Ca
  Ca534    1.0000 0.04178  0.68731  0.39299  Biso   1.000  Ca
  Ca535    1.0000 0.09506  0.71838  0.40675  Biso   1.000  Ca
  P319     1.0000 0.12136  0.71838  0.43460  Biso   1.000  P 
  O1391    1.0000 0.23484  0.71838  0.39582  Biso   1.000  O 
  O1392    1.0000 0.14463  0.71838  0.43713  Biso   1.000  O 
  Ca536    1.0000 0.24929  0.71838  0.42078  Biso   1.000  Ca
  P320     1.0000 0.20404  0.71838  0.42397  Biso   1.000  P 
  O1393    1.0000 0.19200  0.71838  0.40876  Biso   1.000  O 
  O1394    1.0000 0.18949  0.71838  0.43784  Biso   1.000  O 
  Ca537    1.0000 0.15599  0.71838  0.40568  Biso   1.000  Ca
  P321     1.0000 0.04995  0.71838  0.42886  Biso   1.000  P 
  O1395    1.0000 0.07350  0.71838  0.42864  Biso   1.000  O 
  O1396    1.0000 0.04122  0.71838  0.41246  Biso   1.000  O 
  Ca538    1.0000 0.03018  0.65589  0.43346  Biso   1.000  Ca
  P322     1.0000 0.00386  0.65589  0.40561  Biso   1.000  P 
  O1397    1.0000 0.14039  0.65589  0.44439  Biso   1.000  O 
  O1398    1.0000 0.23060  0.65589  0.40309  Biso   1.000  O 
  Ca539    1.0000 0.12593  0.65589  0.41943  Biso   1.000  Ca
  P323     1.0000 0.17119  0.65589  0.41624  Biso   1.000  P 
  O1399    1.0000 0.18322  0.65589  0.43146  Biso   1.000  O 
  O1400    1.0000 0.18573  0.65589  0.40237  Biso   1.000  O 
  Ca540    1.0000 0.21922  0.65589  0.43454  Biso   1.000  Ca
  P324     1.0000 0.07528  0.65589  0.41135  Biso   1.000  P 
  O1401    1.0000 0.05172  0.65589  0.41157  Biso   1.000  O 
  O1402    1.0000 0.08400  0.65589  0.42775  Biso   1.000  O 
  O1403    1.0000 0.12511  0.64938  0.39300  Biso   1.000  O 
  O1404    1.0000 0.12511  0.71187  0.39300  Biso   1.000  O 
  H107     1.0000 0.12511  0.62920  0.39300  Biso   1.000  H 
  H108     1.0000 0.12522  0.69169  0.39295  Biso   1.000  H 
  O1405    1.0000 0.23942  0.74085  0.47982  Biso   1.000  O 
  O1406    1.0000 0.09286  0.74085  0.47817  Biso   1.000  O 
  O1407    1.0000 0.16805  0.74085  0.49208  Biso   1.000  O 
  O1408    1.0000 0.13580  0.67835  0.46882  Biso   1.000  O 
  O1409    1.0000 0.03236  0.67835  0.47047  Biso   1.000  O 
  O1410    1.0000 0.20717  0.67835  0.45657  Biso   1.000  O 
  O1411    1.0000 0.13580  0.63342  0.46882  Biso   1.000  O 
  O1412    1.0000 0.03236  0.63342  0.47047  Biso   1.000  O 
  O1413    1.0000 0.20717  0.63342  0.45657  Biso   1.000  O 
  O1414    1.0000 0.23942  0.69593  0.47982  Biso   1.000  O 
  O1415    1.0000 0.09286  0.69593  0.47817  Biso   1.000  O 
  O1416    1.0000 0.16805  0.69593  0.49208  Biso   1.000  O 
  Ca541    1.0000 0.16678  0.74945  0.44721  Biso   1.000  Ca
  Ca542    1.0000 0.08344  0.68696  0.44722  Biso   1.000  Ca
  Ca543    1.0000 0.08344  0.74982  0.44722  Biso   1.000  Ca
  Ca544    1.0000 0.16678  0.68731  0.44721  Biso   1.000  Ca
  Ca545    1.0000 0.22006  0.71838  0.46097  Biso   1.000  Ca
  P325     1.0000 0.24636  0.71838  0.48881  Biso   1.000  P 
  O1417    1.0000 0.10984  0.71838  0.45004  Biso   1.000  O 
  O1418    1.0000 0.01963  0.71838  0.49134  Biso   1.000  O 
  Ca546    1.0000 0.12429  0.71838  0.47500  Biso   1.000  Ca
  P326     1.0000 0.07904  0.71838  0.47819  Biso   1.000  P 
  O1419    1.0000 0.06700  0.71838  0.46298  Biso   1.000  O 
  O1420    1.0000 0.06449  0.71838  0.49206  Biso   1.000  O 
  Ca547    1.0000 0.03099  0.71838  0.45990  Biso   1.000  Ca
  P327     1.0000 0.17495  0.71838  0.48308  Biso   1.000  P 
  O1421    1.0000 0.19850  0.71838  0.48285  Biso   1.000  O 
  O1422    1.0000 0.16622  0.71838  0.46667  Biso   1.000  O 
  Ca548    1.0000 0.15518  0.65589  0.48768  Biso   1.000  Ca
  P328     1.0000 0.12886  0.65589  0.45983  Biso   1.000  P 
  O1423    1.0000 0.01539  0.65589  0.49861  Biso   1.000  O 
  O1424    1.0000 0.10560  0.65589  0.45731  Biso   1.000  O 
  Ca549    1.0000 0.00093  0.65589  0.47365  Biso   1.000  Ca
  P329     1.0000 0.04619  0.65589  0.47046  Biso   1.000  P 
  O1425    1.0000 0.05822  0.65589  0.48568  Biso   1.000  O 
  O1426    1.0000 0.06073  0.65589  0.45658  Biso   1.000  O 
  Ca550    1.0000 0.09422  0.65589  0.48875  Biso   1.000  Ca
  P330     1.0000 0.20028  0.65589  0.46557  Biso   1.000  P 
  O1427    1.0000 0.17672  0.65589  0.46579  Biso   1.000  O 
  O1428    1.0000 0.20900  0.65589  0.48197  Biso   1.000  O 
  O1429    1.0000 0.00011  0.64938  0.44722  Biso   1.000  O 
  O1430    1.0000 0.00011  0.71187  0.44722  Biso   1.000  O 
  H109     1.0000 0.00011  0.62920  0.44722  Biso   1.000  H 
  H110     1.0000 0.00022  0.69169  0.44717  Biso   1.000  H 
  O1431    1.0000 0.11442  0.74085  0.53404  Biso   1.000  O 
  O1432    1.0000 0.21786  0.74085  0.53239  Biso   1.000  O 
  O1433    1.0000 0.04305  0.74085  0.54629  Biso   1.000  O 
  O1434    1.0000 0.01080  0.67835  0.52304  Biso   1.000  O 
  O1435    1.0000 0.15736  0.67835  0.52469  Biso   1.000  O 
  O1436    1.0000 0.08217  0.67835  0.51079  Biso   1.000  O 
  O1437    1.0000 0.01080  0.63342  0.52304  Biso   1.000  O 
  O1438    1.0000 0.15736  0.63342  0.52469  Biso   1.000  O 
  O1439    1.0000 0.08217  0.63342  0.51079  Biso   1.000  O 
  O1440    1.0000 0.11442  0.69593  0.53404  Biso   1.000  O 
  O1441    1.0000 0.21786  0.69593  0.53239  Biso   1.000  O 
  O1442    1.0000 0.04305  0.69593  0.54629  Biso   1.000  O 
  Ca551    1.0000 0.04178  0.74945  0.50143  Biso   1.000  Ca
  Ca552    1.0000 0.20844  0.68696  0.50144  Biso   1.000  Ca
  Ca553    1.0000 0.20844  0.74982  0.50144  Biso   1.000  Ca
  Ca554    1.0000 0.04178  0.68731  0.50143  Biso   1.000  Ca
  Ca555    1.0000 0.09506  0.71838  0.51519  Biso   1.000  Ca
  P331     1.0000 0.12136  0.71838  0.54303  Biso   1.000  P 
  O1443    1.0000 0.23484  0.71838  0.50426  Biso   1.000  O 
  O1444    1.0000 0.14463  0.71838  0.54556  Biso   1.000  O 
  Ca556    1.0000 0.24929  0.71838  0.52922  Biso   1.000  Ca
  P332     1.0000 0.20404  0.71838  0.53241  Biso   1.000  P 
  O1445    1.0000 0.19200  0.71838  0.51720  Biso   1.000  O 
  O1446    1.0000 0.18949  0.71838  0.54628  Biso   1.000  O 
  Ca557    1.0000 0.15599  0.71838  0.51412  Biso   1.000  Ca
  P333     1.0000 0.04995  0.71838  0.53729  Biso   1.000  P 
  O1447    1.0000 0.07350  0.71838  0.53707  Biso   1.000  O 
  O1448    1.0000 0.04122  0.71838  0.52089  Biso   1.000  O 
  Ca558    1.0000 0.03018  0.65589  0.54190  Biso   1.000  Ca
  P334     1.0000 0.00386  0.65589  0.51405  Biso   1.000  P 
  O1449    1.0000 0.14039  0.65589  0.55283  Biso   1.000  O 
  O1450    1.0000 0.23060  0.65589  0.51152  Biso   1.000  O 
  Ca559    1.0000 0.12593  0.65589  0.52786  Biso   1.000  Ca
  P335     1.0000 0.17119  0.65589  0.52468  Biso   1.000  P 
  O1451    1.0000 0.18322  0.65589  0.53989  Biso   1.000  O 
  O1452    1.0000 0.18573  0.65589  0.51080  Biso   1.000  O 
  Ca560    1.0000 0.21922  0.65589  0.54297  Biso   1.000  Ca
  P336     1.0000 0.07528  0.65589  0.51979  Biso   1.000  P 
  O1453    1.0000 0.05172  0.65589  0.52001  Biso   1.000  O 
  O1454    1.0000 0.08400  0.65589  0.53619  Biso   1.000  O 
  O1455    1.0000 0.12511  0.64938  0.50143  Biso   1.000  O 
  O1456    1.0000 0.12511  0.71187  0.50143  Biso   1.000  O 
  H111     1.0000 0.12511  0.62920  0.50143  Biso   1.000  H 
  H112     1.0000 0.12522  0.69169  0.50139  Biso   1.000  H 
  O1457    1.0000 0.23942  0.74085  0.58826  Biso   1.000  O 
  O1458    1.0000 0.09286  0.74085  0.58661  Biso   1.000  O 
  O1459    1.0000 0.16805  0.74085  0.60051  Biso   1.000  O 
  O1460    1.0000 0.13580  0.67835  0.57726  Biso   1.000  O 
  O1461    1.0000 0.03236  0.67835  0.57891  Biso   1.000  O 
  O1462    1.0000 0.20717  0.67835  0.56500  Biso   1.000  O 
  O1463    1.0000 0.13580  0.63342  0.57726  Biso   1.000  O 
  O1464    1.0000 0.03236  0.63342  0.57891  Biso   1.000  O 
  O1465    1.0000 0.20717  0.63342  0.56500  Biso   1.000  O 
  O1466    1.0000 0.23942  0.69593  0.58826  Biso   1.000  O 
  O1467    1.0000 0.09286  0.69593  0.58661  Biso   1.000  O 
  O1468    1.0000 0.16805  0.69593  0.60051  Biso   1.000  O 
  Ca561    1.0000 0.16678  0.74945  0.55565  Biso   1.000  Ca
  Ca562    1.0000 0.08344  0.68696  0.55565  Biso   1.000  Ca
  Ca563    1.0000 0.08344  0.74982  0.55565  Biso   1.000  Ca
  Ca564    1.0000 0.16678  0.68731  0.55565  Biso   1.000  Ca
  Ca565    1.0000 0.22006  0.71838  0.56941  Biso   1.000  Ca
  P337     1.0000 0.24636  0.71838  0.59725  Biso   1.000  P 
  O1469    1.0000 0.10984  0.71838  0.55847  Biso   1.000  O 
  O1470    1.0000 0.01963  0.71838  0.59978  Biso   1.000  O 
  Ca566    1.0000 0.12429  0.71838  0.58343  Biso   1.000  Ca
  P338     1.0000 0.07904  0.71838  0.58662  Biso   1.000  P 
  O1471    1.0000 0.06700  0.71838  0.57141  Biso   1.000  O 
  O1472    1.0000 0.06449  0.71838  0.60050  Biso   1.000  O 
  Ca567    1.0000 0.03099  0.71838  0.56834  Biso   1.000  Ca
  P339     1.0000 0.17495  0.71838  0.59151  Biso   1.000  P 
  O1473    1.0000 0.19850  0.71838  0.59129  Biso   1.000  O 
  O1474    1.0000 0.16622  0.71838  0.57511  Biso   1.000  O 
  Ca568    1.0000 0.15518  0.65589  0.59611  Biso   1.000  Ca
  P340     1.0000 0.12886  0.65589  0.56827  Biso   1.000  P 
  O1475    1.0000 0.01539  0.65589  0.60705  Biso   1.000  O 
  O1476    1.0000 0.10560  0.65589  0.56574  Biso   1.000  O 
  Ca569    1.0000 0.00093  0.65589  0.58208  Biso   1.000  Ca
  P341     1.0000 0.04619  0.65589  0.57890  Biso   1.000  P 
  O1477    1.0000 0.05822  0.65589  0.59411  Biso   1.000  O 
  O1478    1.0000 0.06073  0.65589  0.56502  Biso   1.000  O 
  Ca570    1.0000 0.09422  0.65589  0.59719  Biso   1.000  Ca
  P342     1.0000 0.20028  0.65589  0.57400  Biso   1.000  P 
  O1479    1.0000 0.17672  0.65589  0.57423  Biso   1.000  O 
  O1480    1.0000 0.20900  0.65589  0.59041  Biso   1.000  O 
  O1481    1.0000 0.00011  0.64938  0.55565  Biso   1.000  O 
  O1482    1.0000 0.00011  0.71187  0.55565  Biso   1.000  O 
  H113     1.0000 0.00011  0.62920  0.55565  Biso   1.000  H 
  H114     1.0000 0.00022  0.69169  0.55561  Biso   1.000  H 
  O1483    1.0000 0.11442  0.74085  0.64248  Biso   1.000  O 
  O1484    1.0000 0.21786  0.74085  0.64083  Biso   1.000  O 
  O1485    1.0000 0.04305  0.74085  0.65473  Biso   1.000  O 
  O1486    1.0000 0.01080  0.67835  0.63147  Biso   1.000  O 
  O1487    1.0000 0.15736  0.67835  0.63313  Biso   1.000  O 
  O1488    1.0000 0.08217  0.67835  0.61922  Biso   1.000  O 
  O1489    1.0000 0.01080  0.63342  0.63147  Biso   1.000  O 
  O1490    1.0000 0.15736  0.63342  0.63313  Biso   1.000  O 
  O1491    1.0000 0.08217  0.63342  0.61922  Biso   1.000  O 
  O1492    1.0000 0.11442  0.69593  0.64248  Biso   1.000  O 
  O1493    1.0000 0.21786  0.69593  0.64083  Biso   1.000  O 
  O1494    1.0000 0.04305  0.69593  0.65473  Biso   1.000  O 
  Ca571    1.0000 0.04178  0.74945  0.60986  Biso   1.000  Ca
  Ca572    1.0000 0.20844  0.68696  0.60987  Biso   1.000  Ca
  Ca573    1.0000 0.20844  0.74982  0.60987  Biso   1.000  Ca
  Ca574    1.0000 0.04178  0.68731  0.60986  Biso   1.000  Ca
  Ca575    1.0000 0.09506  0.71838  0.62363  Biso   1.000  Ca
  P343     1.0000 0.12136  0.71838  0.65147  Biso   1.000  P 
  O1495    1.0000 0.23484  0.71838  0.61269  Biso   1.000  O 
  O1496    1.0000 0.14463  0.71838  0.65400  Biso   1.000  O 
  Ca576    1.0000 0.24929  0.71838  0.63765  Biso   1.000  Ca
  P344     1.0000 0.20404  0.71838  0.64084  Biso   1.000  P 
  O1497    1.0000 0.19200  0.71838  0.62563  Biso   1.000  O 
  O1498    1.0000 0.18949  0.71838  0.65471  Biso   1.000  O 
  Ca577    1.0000 0.15599  0.71838  0.62255  Biso   1.000  Ca
  P345     1.0000 0.04995  0.71838  0.64573  Biso   1.000  P 
  O1499    1.0000 0.07350  0.71838  0.64551  Biso   1.000  O 
  O1500    1.0000 0.04122  0.71838  0.62933  Biso   1.000  O 
  Ca578    1.0000 0.03018  0.65589  0.65033  Biso   1.000  Ca
  P346     1.0000 0.00386  0.65589  0.62248  Biso   1.000  P 
  O1501    1.0000 0.14039  0.65589  0.66127  Biso   1.000  O 
  O1502    1.0000 0.23060  0.65589  0.61996  Biso   1.000  O 
  Ca579    1.0000 0.12593  0.65589  0.63630  Biso   1.000  Ca
  P347     1.0000 0.17119  0.65589  0.63312  Biso   1.000  P 
  O1503    1.0000 0.18322  0.65589  0.64833  Biso   1.000  O 
  O1504    1.0000 0.18573  0.65589  0.61924  Biso   1.000  O 
  Ca580    1.0000 0.21922  0.65589  0.65141  Biso   1.000  Ca
  P348     1.0000 0.07528  0.65589  0.62822  Biso   1.000  P 
  O1505    1.0000 0.05172  0.65589  0.62845  Biso   1.000  O 
  O1506    1.0000 0.08400  0.65589  0.64462  Biso   1.000  O 
  O1507    1.0000 0.12511  0.64938  0.60987  Biso   1.000  O 
  O1508    1.0000 0.12511  0.71187  0.60987  Biso   1.000  O 
  H115     1.0000 0.12511  0.62920  0.60987  Biso   1.000  H 
  H116     1.0000 0.12522  0.69169  0.60982  Biso   1.000  H 
  O1509    1.0000 0.23942  0.74085  0.69670  Biso   1.000  O 
  O1510    1.0000 0.09286  0.74085  0.69504  Biso   1.000  O 
  O1511    1.0000 0.16805  0.74085  0.70895  Biso   1.000  O 
  O1512    1.0000 0.13580  0.67835  0.68569  Biso   1.000  O 
  O1513    1.0000 0.03236  0.67835  0.68734  Biso   1.000  O 
  O1514    1.0000 0.20717  0.67835  0.67344  Biso   1.000  O 
  O1515    1.0000 0.13580  0.63342  0.68569  Biso   1.000  O 
  O1516    1.0000 0.03236  0.63342  0.68734  Biso   1.000  O 
  O1517    1.0000 0.20717  0.63342  0.67344  Biso   1.000  O 
  O1518    1.0000 0.23942  0.69593  0.69670  Biso   1.000  O 
  O1519    1.0000 0.09286  0.69593  0.69504  Biso   1.000  O 
  O1520    1.0000 0.16805  0.69593  0.70895  Biso   1.000  O 
  Ca581    1.0000 0.16678  0.74945  0.66408  Biso   1.000  Ca
  Ca582    1.0000 0.08344  0.68696  0.66409  Biso   1.000  Ca
  Ca583    1.0000 0.08344  0.74982  0.66409  Biso   1.000  Ca
  Ca584    1.0000 0.16678  0.68731  0.66408  Biso   1.000  Ca
  Ca585    1.0000 0.22006  0.71838  0.67784  Biso   1.000  Ca
  P349     1.0000 0.24636  0.71838  0.70569  Biso   1.000  P 
  O1521    1.0000 0.10984  0.71838  0.66691  Biso   1.000  O 
  O1522    1.0000 0.01963  0.71838  0.70822  Biso   1.000  O 
  Ca586    1.0000 0.12429  0.71838  0.69187  Biso   1.000  Ca
  P350     1.0000 0.07904  0.71838  0.69506  Biso   1.000  P 
  O1523    1.0000 0.06700  0.71838  0.67985  Biso   1.000  O 
  O1524    1.0000 0.06449  0.71838  0.70893  Biso   1.000  O 
  Ca587    1.0000 0.03099  0.71838  0.67677  Biso   1.000  Ca
  P351     1.0000 0.17495  0.71838  0.69995  Biso   1.000  P 
  O1525    1.0000 0.19850  0.71838  0.69973  Biso   1.000  O 
  O1526    1.0000 0.16622  0.71838  0.68355  Biso   1.000  O 
  Ca588    1.0000 0.15518  0.65589  0.70455  Biso   1.000  Ca
  P352     1.0000 0.12886  0.65589  0.67670  Biso   1.000  P 
  O1527    1.0000 0.01539  0.65589  0.71548  Biso   1.000  O 
  O1528    1.0000 0.10560  0.65589  0.67418  Biso   1.000  O 
  Ca589    1.0000 0.00093  0.65589  0.69052  Biso   1.000  Ca
  P353     1.0000 0.04619  0.65589  0.68733  Biso   1.000  P 
  O1529    1.0000 0.05822  0.65589  0.70255  Biso   1.000  O 
  O1530    1.0000 0.06073  0.65589  0.67346  Biso   1.000  O 
  Ca590    1.0000 0.09422  0.65589  0.70563  Biso   1.000  Ca
  P354     1.0000 0.20028  0.65589  0.68244  Biso   1.000  P 
  O1531    1.0000 0.17672  0.65589  0.68266  Biso   1.000  O 
  O1532    1.0000 0.20900  0.65589  0.69884  Biso   1.000  O 
  O1533    1.0000 0.00011  0.64938  0.66409  Biso   1.000  O 
  O1534    1.0000 0.00011  0.71187  0.66409  Biso   1.000  O 
  H117     1.0000 0.00011  0.62920  0.66409  Biso   1.000  H 
  H118     1.0000 0.00022  0.69169  0.66404  Biso   1.000  H 
  O1535    1.0000 0.11442  0.74085  0.75091  Biso   1.000  O 
  O1536    1.0000 0.21786  0.74085  0.74926  Biso   1.000  O 
  O1537    1.0000 0.04305  0.74085  0.76317  Biso   1.000  O 
  O1538    1.0000 0.01080  0.67835  0.73991  Biso   1.000  O 
  O1539    1.0000 0.15736  0.67835  0.74156  Biso   1.000  O 
  O1540    1.0000 0.08217  0.67835  0.72766  Biso   1.000  O 
  O1541    1.0000 0.01080  0.63342  0.73991  Biso   1.000  O 
  O1542    1.0000 0.15736  0.63342  0.74156  Biso   1.000  O 
  O1543    1.0000 0.08217  0.63342  0.72766  Biso   1.000  O 
  O1544    1.0000 0.11442  0.69593  0.75091  Biso   1.000  O 
  O1545    1.0000 0.21786  0.69593  0.74926  Biso   1.000  O 
  O1546    1.0000 0.04305  0.69593  0.76317  Biso   1.000  O 
  Ca591    1.0000 0.04178  0.74945  0.71830  Biso   1.000  Ca
  Ca592    1.0000 0.20844  0.68696  0.71831  Biso   1.000  Ca
  Ca593    1.0000 0.20844  0.74982  0.71831  Biso   1.000  Ca
  Ca594    1.0000 0.04178  0.68731  0.71830  Biso   1.000  Ca
  Ca595    1.0000 0.09506  0.71838  0.73206  Biso   1.000  Ca
  P355     1.0000 0.12136  0.71838  0.75990  Biso   1.000  P 
  O1547    1.0000 0.23484  0.71838  0.72113  Biso   1.000  O 
  O1548    1.0000 0.14463  0.71838  0.76243  Biso   1.000  O 
  Ca596    1.0000 0.24929  0.71838  0.74609  Biso   1.000  Ca
  P356     1.0000 0.20404  0.71838  0.74928  Biso   1.000  P 
  O1549    1.0000 0.19200  0.71838  0.73407  Biso   1.000  O 
  O1550    1.0000 0.18949  0.71838  0.76315  Biso   1.000  O 
  Ca597    1.0000 0.15599  0.71838  0.73099  Biso   1.000  Ca
  P357     1.0000 0.04995  0.71838  0.75417  Biso   1.000  P 
  O1551    1.0000 0.07350  0.71838  0.75394  Biso   1.000  O 
  O1552    1.0000 0.04122  0.71838  0.73776  Biso   1.000  O 
  Ca598    1.0000 0.03018  0.65589  0.75877  Biso   1.000  Ca
  P358     1.0000 0.00386  0.65589  0.73092  Biso   1.000  P 
  O1553    1.0000 0.14039  0.65589  0.76970  Biso   1.000  O 
  O1554    1.0000 0.23060  0.65589  0.72840  Biso   1.000  O 
  Ca599    1.0000 0.12593  0.65589  0.74474  Biso   1.000  Ca
  P359     1.0000 0.17119  0.65589  0.74155  Biso   1.000  P 
  O1555    1.0000 0.18322  0.65589  0.75677  Biso   1.000  O 
  O1556    1.0000 0.18573  0.65589  0.72767  Biso   1.000  O 
  Ca600    1.0000 0.21922  0.65589  0.75984  Biso   1.000  Ca
  P360     1.0000 0.07528  0.65589  0.73666  Biso   1.000  P 
  O1557    1.0000 0.05172  0.65589  0.73688  Biso   1.000  O 
  O1558    1.0000 0.08400  0.65589  0.75306  Biso   1.000  O 
  O1559    1.0000 0.12511  0.64938  0.71831  Biso   1.000  O 
  O1560    1.0000 0.12511  0.71187  0.71831  Biso   1.000  O 
  H119     1.0000 0.12511  0.62920  0.71831  Biso   1.000  H 
  H120     1.0000 0.12522  0.69169  0.71826  Biso   1.000  H 
  O1561    1.0000 0.23942  0.86585  0.26295  Biso   1.000  O 
  O1562    1.0000 0.09286  0.86585  0.26130  Biso   1.000  O 
  O1563    1.0000 0.16805  0.86585  0.27520  Biso   1.000  O 
  O1564    1.0000 0.13580  0.80335  0.25195  Biso   1.000  O 
  O1565    1.0000 0.03236  0.80335  0.25360  Biso   1.000  O 
  O1566    1.0000 0.20717  0.80335  0.23970  Biso   1.000  O 
  O1567    1.0000 0.13580  0.75842  0.25195  Biso   1.000  O 
  O1568    1.0000 0.03236  0.75842  0.25360  Biso   1.000  O 
  O1569    1.0000 0.20717  0.75842  0.23970  Biso   1.000  O 
  O1570    1.0000 0.23942  0.82093  0.26295  Biso   1.000  O 
  O1571    1.0000 0.09286  0.82093  0.26130  Biso   1.000  O 
  O1572    1.0000 0.16805  0.82093  0.27520  Biso   1.000  O 
  Ca601    1.0000 0.16678  0.87445  0.23034  Biso   1.000  Ca
  Ca602    1.0000 0.08344  0.81196  0.23035  Biso   1.000  Ca
  Ca603    1.0000 0.08344  0.87482  0.23035  Biso   1.000  Ca
  Ca604    1.0000 0.16678  0.81231  0.23034  Biso   1.000  Ca
  Ca605    1.0000 0.22006  0.84338  0.24410  Biso   1.000  Ca
  P361     1.0000 0.24636  0.84338  0.27194  Biso   1.000  P 
  O1573    1.0000 0.10984  0.84338  0.23317  Biso   1.000  O 
  O1574    1.0000 0.01963  0.84338  0.27447  Biso   1.000  O 
  Ca606    1.0000 0.12429  0.84338  0.25813  Biso   1.000  Ca
  P362     1.0000 0.07904  0.84338  0.26132  Biso   1.000  P 
  O1575    1.0000 0.06700  0.84338  0.24611  Biso   1.000  O 
  O1576    1.0000 0.06449  0.84338  0.27519  Biso   1.000  O 
  Ca607    1.0000 0.03099  0.84338  0.24303  Biso   1.000  Ca
  P363     1.0000 0.17495  0.84338  0.26620  Biso   1.000  P 
  O1577    1.0000 0.19850  0.84338  0.26598  Biso   1.000  O 
  O1578    1.0000 0.16622  0.84338  0.24980  Biso   1.000  O 
  Ca608    1.0000 0.15518  0.78089  0.27081  Biso   1.000  Ca
  P364     1.0000 0.12886  0.78089  0.24296  Biso   1.000  P 
  O1579    1.0000 0.01539  0.78089  0.28174  Biso   1.000  O 
  O1580    1.0000 0.10560  0.78089  0.24043  Biso   1.000  O 
  Ca609    1.0000 0.00093  0.78089  0.25677  Biso   1.000  Ca
  P365     1.0000 0.04619  0.78089  0.25359  Biso   1.000  P 
  O1581    1.0000 0.05822  0.78089  0.26880  Biso   1.000  O 
  O1582    1.0000 0.06073  0.78089  0.23971  Biso   1.000  O 
  Ca610    1.0000 0.09422  0.78089  0.27188  Biso   1.000  Ca
  P366     1.0000 0.20028  0.78089  0.24870  Biso   1.000  P 
  O1583    1.0000 0.17672  0.78089  0.24892  Biso   1.000  O 
  O1584    1.0000 0.20900  0.78089  0.26510  Biso   1.000  O 
  O1585    1.0000 0.00011  0.77438  0.23034  Biso   1.000  O 
  O1586    1.0000 0.00011  0.83687  0.23034  Biso   1.000  O 
  H121     1.0000 0.00011  0.75420  0.23034  Biso   1.000  H 
  H122     1.0000 0.00022  0.81669  0.23030  Biso   1.000  H 
  O1587    1.0000 0.11442  0.86585  0.31717  Biso   1.000  O 
  O1588    1.0000 0.21786  0.86585  0.31552  Biso   1.000  O 
  O1589    1.0000 0.04305  0.86585  0.32942  Biso   1.000  O 
  O1590    1.0000 0.01080  0.80335  0.30617  Biso   1.000  O 
  O1591    1.0000 0.15736  0.80335  0.30782  Biso   1.000  O 
  O1592    1.0000 0.08217  0.80335  0.29391  Biso   1.000  O 
  O1593    1.0000 0.01080  0.75842  0.30617  Biso   1.000  O 
  O1594    1.0000 0.15736  0.75842  0.30782  Biso   1.000  O 
  O1595    1.0000 0.08217  0.75842  0.29391  Biso   1.000  O 
  O1596    1.0000 0.11442  0.82093  0.31717  Biso   1.000  O 
  O1597    1.0000 0.21786  0.82093  0.31552  Biso   1.000  O 
  O1598    1.0000 0.04305  0.82093  0.32942  Biso   1.000  O 
  Ca611    1.0000 0.04178  0.87445  0.28456  Biso   1.000  Ca
  Ca612    1.0000 0.20844  0.81196  0.28456  Biso   1.000  Ca
  Ca613    1.0000 0.20844  0.87482  0.28456  Biso   1.000  Ca
  Ca614    1.0000 0.04178  0.81231  0.28456  Biso   1.000  Ca
  Ca615    1.0000 0.09506  0.84338  0.29832  Biso   1.000  Ca
  P367     1.0000 0.12136  0.84338  0.32616  Biso   1.000  P 
  O1599    1.0000 0.23484  0.84338  0.28738  Biso   1.000  O 
  O1600    1.0000 0.14463  0.84338  0.32869  Biso   1.000  O 
  Ca616    1.0000 0.24929  0.84338  0.31234  Biso   1.000  Ca
  P368     1.0000 0.20404  0.84338  0.31554  Biso   1.000  P 
  O1601    1.0000 0.19200  0.84338  0.30033  Biso   1.000  O 
  O1602    1.0000 0.18949  0.84338  0.32941  Biso   1.000  O 
  Ca617    1.0000 0.15599  0.84338  0.29725  Biso   1.000  Ca
  P369     1.0000 0.04995  0.84338  0.32042  Biso   1.000  P 
  O1603    1.0000 0.07350  0.84338  0.32020  Biso   1.000  O 
  O1604    1.0000 0.04122  0.84338  0.30402  Biso   1.000  O 
  Ca618    1.0000 0.03018  0.78089  0.32502  Biso   1.000  Ca
  P370     1.0000 0.00386  0.78089  0.29718  Biso   1.000  P 
  O1605    1.0000 0.14039  0.78089  0.33596  Biso   1.000  O 
  O1606    1.0000 0.23060  0.78089  0.29465  Biso   1.000  O 
  Ca619    1.0000 0.12593  0.78089  0.31099  Biso   1.000  Ca
  P371     1.0000 0.17119  0.78089  0.30781  Biso   1.000  P 
  O1607    1.0000 0.18322  0.78089  0.32302  Biso   1.000  O 
  O1608    1.0000 0.18573  0.78089  0.29393  Biso   1.000  O 
  Ca620    1.0000 0.21922  0.78089  0.32610  Biso   1.000  Ca
  P372     1.0000 0.07528  0.78089  0.30291  Biso   1.000  P 
  O1609    1.0000 0.05172  0.78089  0.30314  Biso   1.000  O 
  O1610    1.0000 0.08400  0.78089  0.31932  Biso   1.000  O 
  O1611    1.0000 0.12511  0.77438  0.28456  Biso   1.000  O 
  O1612    1.0000 0.12511  0.83687  0.28456  Biso   1.000  O 
  H123     1.0000 0.12511  0.75420  0.28456  Biso   1.000  H 
  H124     1.0000 0.12522  0.81669  0.28452  Biso   1.000  H 
  O1613    1.0000 0.23942  0.86585  0.37139  Biso   1.000  O 
  O1614    1.0000 0.09286  0.86585  0.36974  Biso   1.000  O 
  O1615    1.0000 0.16805  0.86585  0.38364  Biso   1.000  O 
  O1616    1.0000 0.13580  0.80335  0.36038  Biso   1.000  O 
  O1617    1.0000 0.03236  0.80335  0.36204  Biso   1.000  O 
  O1618    1.0000 0.20717  0.80335  0.34813  Biso   1.000  O 
  O1619    1.0000 0.13580  0.75842  0.36038  Biso   1.000  O 
  O1620    1.0000 0.03236  0.75842  0.36204  Biso   1.000  O 
  O1621    1.0000 0.20717  0.75842  0.34813  Biso   1.000  O 
  O1622    1.0000 0.23942  0.82093  0.37139  Biso   1.000  O 
  O1623    1.0000 0.09286  0.82093  0.36974  Biso   1.000  O 
  O1624    1.0000 0.16805  0.82093  0.38364  Biso   1.000  O 
  Ca621    1.0000 0.16678  0.87445  0.33877  Biso   1.000  Ca
  Ca622    1.0000 0.08344  0.81196  0.33878  Biso   1.000  Ca
  Ca623    1.0000 0.08344  0.87482  0.33878  Biso   1.000  Ca
  Ca624    1.0000 0.16678  0.81231  0.33877  Biso   1.000  Ca
  Ca625    1.0000 0.22006  0.84338  0.35254  Biso   1.000  Ca
  P373     1.0000 0.24636  0.84338  0.38038  Biso   1.000  P 
  O1625    1.0000 0.10984  0.84338  0.34160  Biso   1.000  O 
  O1626    1.0000 0.01963  0.84338  0.38291  Biso   1.000  O 
  Ca626    1.0000 0.12429  0.84338  0.36656  Biso   1.000  Ca
  P374     1.0000 0.07904  0.84338  0.36975  Biso   1.000  P 
  O1627    1.0000 0.06700  0.84338  0.35454  Biso   1.000  O 
  O1628    1.0000 0.06449  0.84338  0.38362  Biso   1.000  O 
  Ca627    1.0000 0.03099  0.84338  0.35146  Biso   1.000  Ca
  P375     1.0000 0.17495  0.84338  0.37464  Biso   1.000  P 
  O1629    1.0000 0.19850  0.84338  0.37442  Biso   1.000  O 
  O1630    1.0000 0.16622  0.84338  0.35824  Biso   1.000  O 
  Ca628    1.0000 0.15518  0.78089  0.37924  Biso   1.000  Ca
  P376     1.0000 0.12886  0.78089  0.35140  Biso   1.000  P 
  O1631    1.0000 0.01539  0.78089  0.39018  Biso   1.000  O 
  O1632    1.0000 0.10560  0.78089  0.34887  Biso   1.000  O 
  Ca629    1.0000 0.00093  0.78089  0.36521  Biso   1.000  Ca
  P377     1.0000 0.04619  0.78089  0.36203  Biso   1.000  P 
  O1633    1.0000 0.05822  0.78089  0.37724  Biso   1.000  O 
  O1634    1.0000 0.06073  0.78089  0.34815  Biso   1.000  O 
  Ca630    1.0000 0.09422  0.78089  0.38032  Biso   1.000  Ca
  P378     1.0000 0.20028  0.78089  0.35713  Biso   1.000  P 
  O1635    1.0000 0.17672  0.78089  0.35736  Biso   1.000  O 
  O1636    1.0000 0.20900  0.78089  0.37353  Biso   1.000  O 
  O1637    1.0000 0.00011  0.77438  0.33878  Biso   1.000  O 
  O1638    1.0000 0.00011  0.83687  0.33878  Biso   1.000  O 
  H125     1.0000 0.00011  0.75420  0.33878  Biso   1.000  H 
  H126     1.0000 0.00022  0.81669  0.33873  Biso   1.000  H 
  O1639    1.0000 0.11442  0.86585  0.42561  Biso   1.000  O 
  O1640    1.0000 0.21786  0.86585  0.42395  Biso   1.000  O 
  O1641    1.0000 0.04305  0.86585  0.43786  Biso   1.000  O 
  O1642    1.0000 0.01080  0.80335  0.41460  Biso   1.000  O 
  O1643    1.0000 0.15736  0.80335  0.41625  Biso   1.000  O 
  O1644    1.0000 0.08217  0.80335  0.40235  Biso   1.000  O 
  O1645    1.0000 0.01080  0.75842  0.41460  Biso   1.000  O 
  O1646    1.0000 0.15736  0.75842  0.41625  Biso   1.000  O 
  O1647    1.0000 0.08217  0.75842  0.40235  Biso   1.000  O 
  O1648    1.0000 0.11442  0.82093  0.42561  Biso   1.000  O 
  O1649    1.0000 0.21786  0.82093  0.42395  Biso   1.000  O 
  O1650    1.0000 0.04305  0.82093  0.43786  Biso   1.000  O 
  Ca631    1.0000 0.04178  0.87445  0.39299  Biso   1.000  Ca
  Ca632    1.0000 0.20844  0.81196  0.39300  Biso   1.000  Ca
  Ca633    1.0000 0.20844  0.87482  0.39300  Biso   1.000  Ca
  Ca634    1.0000 0.04178  0.81231  0.39299  Biso   1.000  Ca
  Ca635    1.0000 0.09506  0.84338  0.40675  Biso   1.000  Ca
  P379     1.0000 0.12136  0.84338  0.43460  Biso   1.000  P 
  O1651    1.0000 0.23484  0.84338  0.39582  Biso   1.000  O 
  O1652    1.0000 0.14463  0.84338  0.43713  Biso   1.000  O 
  Ca636    1.0000 0.24929  0.84338  0.42078  Biso   1.000  Ca
  P380     1.0000 0.20404  0.84338  0.42397  Biso   1.000  P 
  O1653    1.0000 0.19200  0.84338  0.40876  Biso   1.000  O 
  O1654    1.0000 0.18949  0.84338  0.43784  Biso   1.000  O 
  Ca637    1.0000 0.15599  0.84338  0.40568  Biso   1.000  Ca
  P381     1.0000 0.04995  0.84338  0.42886  Biso   1.000  P 
  O1655    1.0000 0.07350  0.84338  0.42864  Biso   1.000  O 
  O1656    1.0000 0.04122  0.84338  0.41246  Biso   1.000  O 
  Ca638    1.0000 0.03018  0.78089  0.43346  Biso   1.000  Ca
  P382     1.0000 0.00386  0.78089  0.40561  Biso   1.000  P 
  O1657    1.0000 0.14039  0.78089  0.44439  Biso   1.000  O 
  O1658    1.0000 0.23060  0.78089  0.40309  Biso   1.000  O 
  Ca639    1.0000 0.12593  0.78089  0.41943  Biso   1.000  Ca
  P383     1.0000 0.17119  0.78089  0.41624  Biso   1.000  P 
  O1659    1.0000 0.18322  0.78089  0.43146  Biso   1.000  O 
  O1660    1.0000 0.18573  0.78089  0.40237  Biso   1.000  O 
  Ca640    1.0000 0.21922  0.78089  0.43454  Biso   1.000  Ca
  P384     1.0000 0.07528  0.78089  0.41135  Biso   1.000  P 
  O1661    1.0000 0.05172  0.78089  0.41157  Biso   1.000  O 
  O1662    1.0000 0.08400  0.78089  0.42775  Biso   1.000  O 
  O1663    1.0000 0.12511  0.77438  0.39300  Biso   1.000  O 
  O1664    1.0000 0.12511  0.83687  0.39300  Biso   1.000  O 
  H127     1.0000 0.12511  0.75420  0.39300  Biso   1.000  H 
  H128     1.0000 0.12522  0.81669  0.39295  Biso   1.000  H 
  O1665    1.0000 0.23942  0.86585  0.47982  Biso   1.000  O 
  O1666    1.0000 0.09286  0.86585  0.47817  Biso   1.000  O 
  O1667    1.0000 0.16805  0.86585  0.49208  Biso   1.000  O 
  O1668    1.0000 0.13580  0.80335  0.46882  Biso   1.000  O 
  O1669    1.0000 0.03236  0.80335  0.47047  Biso   1.000  O 
  O1670    1.0000 0.20717  0.80335  0.45657  Biso   1.000  O 
  O1671    1.0000 0.13580  0.75842  0.46882  Biso   1.000  O 
  O1672    1.0000 0.03236  0.75842  0.47047  Biso   1.000  O 
  O1673    1.0000 0.20717  0.75842  0.45657  Biso   1.000  O 
  O1674    1.0000 0.23942  0.82093  0.47982  Biso   1.000  O 
  O1675    1.0000 0.09286  0.82093  0.47817  Biso   1.000  O 
  O1676    1.0000 0.16805  0.82093  0.49208  Biso   1.000  O 
  Ca641    1.0000 0.16678  0.87445  0.44721  Biso   1.000  Ca
  Ca642    1.0000 0.08344  0.81196  0.44722  Biso   1.000  Ca
  Ca643    1.0000 0.08344  0.87482  0.44722  Biso   1.000  Ca
  Ca644    1.0000 0.16678  0.81231  0.44721  Biso   1.000  Ca
  Ca645    1.0000 0.22006  0.84338  0.46097  Biso   1.000  Ca
  P385     1.0000 0.24636  0.84338  0.48881  Biso   1.000  P 
  O1677    1.0000 0.10984  0.84338  0.45004  Biso   1.000  O 
  O1678    1.0000 0.01963  0.84338  0.49134  Biso   1.000  O 
  Ca646    1.0000 0.12429  0.84338  0.47500  Biso   1.000  Ca
  P386     1.0000 0.07904  0.84338  0.47819  Biso   1.000  P 
  O1679    1.0000 0.06700  0.84338  0.46298  Biso   1.000  O 
  O1680    1.0000 0.06449  0.84338  0.49206  Biso   1.000  O 
  Ca647    1.0000 0.03099  0.84338  0.45990  Biso   1.000  Ca
  P387     1.0000 0.17495  0.84338  0.48308  Biso   1.000  P 
  O1681    1.0000 0.19850  0.84338  0.48285  Biso   1.000  O 
  O1682    1.0000 0.16622  0.84338  0.46667  Biso   1.000  O 
  Ca648    1.0000 0.15518  0.78089  0.48768  Biso   1.000  Ca
  P388     1.0000 0.12886  0.78089  0.45983  Biso   1.000  P 
  O1683    1.0000 0.01539  0.78089  0.49861  Biso   1.000  O 
  O1684    1.0000 0.10560  0.78089  0.45731  Biso   1.000  O 
  Ca649    1.0000 0.00093  0.78089  0.47365  Biso   1.000  Ca
  P389     1.0000 0.04619  0.78089  0.47046  Biso   1.000  P 
  O1685    1.0000 0.05822  0.78089  0.48568  Biso   1.000  O 
  O1686    1.0000 0.06073  0.78089  0.45658  Biso   1.000  O 
  Ca650    1.0000 0.09422  0.78089  0.48875  Biso   1.000  Ca
  P390     1.0000 0.20028  0.78089  0.46557  Biso   1.000  P 
  O1687    1.0000 0.17672  0.78089  0.46579  Biso   1.000  O 
  O1688    1.0000 0.20900  0.78089  0.48197  Biso   1.000  O 
  O1689    1.0000 0.00011  0.77438  0.44722  Biso   1.000  O 
  O1690    1.0000 0.00011  0.83687  0.44722  Biso   1.000  O 
  H129     1.0000 0.00011  0.75420  0.44722  Biso   1.000  H 
  H130     1.0000 0.00022  0.81669  0.44717  Biso   1.000  H 
  O1691    1.0000 0.11442  0.86585  0.53404  Biso   1.000  O 
  O1692    1.0000 0.21786  0.86585  0.53239  Biso   1.000  O 
  O1693    1.0000 0.04305  0.86585  0.54629  Biso   1.000  O 
  O1694    1.0000 0.01080  0.80335  0.52304  Biso   1.000  O 
  O1695    1.0000 0.15736  0.80335  0.52469  Biso   1.000  O 
  O1696    1.0000 0.08217  0.80335  0.51079  Biso   1.000  O 
  O1697    1.0000 0.01080  0.75842  0.52304  Biso   1.000  O 
  O1698    1.0000 0.15736  0.75842  0.52469  Biso   1.000  O 
  O1699    1.0000 0.08217  0.75842  0.51079  Biso   1.000  O 
  O1700    1.0000 0.11442  0.82093  0.53404  Biso   1.000  O 
  O1701    1.0000 0.21786  0.82093  0.53239  Biso   1.000  O 
  O1702    1.0000 0.04305  0.82093  0.54629  Biso   1.000  O 
  Ca651    1.0000 0.04178  0.87445  0.50143  Biso   1.000  Ca
  Ca652    1.0000 0.20844  0.81196  0.50144  Biso   1.000  Ca
  Ca653    1.0000 0.20844  0.87482  0.50144  Biso   1.000  Ca
  Ca654    1.0000 0.04178  0.81231  0.50143  Biso   1.000  Ca
  Ca655    1.0000 0.09506  0.84338  0.51519  Biso   1.000  Ca
  P391     1.0000 0.12136  0.84338  0.54303  Biso   1.000  P 
  O1703    1.0000 0.23484  0.84338  0.50426  Biso   1.000  O 
  O1704    1.0000 0.14463  0.84338  0.54556  Biso   1.000  O 
  Ca656    1.0000 0.24929  0.84338  0.52922  Biso   1.000  Ca
  P392     1.0000 0.20404  0.84338  0.53241  Biso   1.000  P 
  O1705    1.0000 0.19200  0.84338  0.51720  Biso   1.000  O 
  O1706    1.0000 0.18949  0.84338  0.54628  Biso   1.000  O 
  Ca657    1.0000 0.15599  0.84338  0.51412  Biso   1.000  Ca
  P393     1.0000 0.04995  0.84338  0.53729  Biso   1.000  P 
  O1707    1.0000 0.07350  0.84338  0.53707  Biso   1.000  O 
  O1708    1.0000 0.04122  0.84338  0.52089  Biso   1.000  O 
  Ca658    1.0000 0.03018  0.78089  0.54190  Biso   1.000  Ca
  P394     1.0000 0.00386  0.78089  0.51405  Biso   1.000  P 
  O1709    1.0000 0.14039  0.78089  0.55283  Biso   1.000  O 
  O1710    1.0000 0.23060  0.78089  0.51152  Biso   1.000  O 
  Ca659    1.0000 0.12593  0.78089  0.52786  Biso   1.000  Ca
  P395     1.0000 0.17119  0.78089  0.52468  Biso   1.000  P 
  O1711    1.0000 0.18322  0.78089  0.53989  Biso   1.000  O 
  O1712    1.0000 0.18573  0.78089  0.51080  Biso   1.000  O 
  Ca660    1.0000 0.21922  0.78089  0.54297  Biso   1.000  Ca
  P396     1.0000 0.07528  0.78089  0.51979  Biso   1.000  P 
  O1713    1.0000 0.05172  0.78089  0.52001  Biso   1.000  O 
  O1714    1.0000 0.08400  0.78089  0.53619  Biso   1.000  O 
  O1715    1.0000 0.12511  0.77438  0.50143  Biso   1.000  O 
  O1716    1.0000 0.12511  0.83687  0.50143  Biso   1.000  O 
  H131     1.0000 0.12511  0.75420  0.50143  Biso   1.000  H 
  H132     1.0000 0.12522  0.81669  0.50139  Biso   1.000  H 
  O1717    1.0000 0.23942  0.86585  0.58826  Biso   1.000  O 
  O1718    1.0000 0.09286  0.86585  0.58661  Biso   1.000  O 
  O1719    1.0000 0.16805  0.86585  0.60051  Biso   1.000  O 
  O1720    1.0000 0.13580  0.80335  0.57726  Biso   1.000  O 
  O1721    1.0000 0.03236  0.80335  0.57891  Biso   1.000  O 
  O1722    1.0000 0.20717  0.80335  0.56500  Biso   1.000  O 
  O1723    1.0000 0.13580  0.75842  0.57726  Biso   1.000  O 
  O1724    1.0000 0.03236  0.75842  0.57891  Biso   1.000  O 
  O1725    1.0000 0.20717  0.75842  0.56500  Biso   1.000  O 
  O1726    1.0000 0.23942  0.82093  0.58826  Biso   1.000  O 
  O1727    1.0000 0.09286  0.82093  0.58661  Biso   1.000  O 
  O1728    1.0000 0.16805  0.82093  0.60051  Biso   1.000  O 
  Ca661    1.0000 0.16678  0.87445  0.55565  Biso   1.000  Ca
  Ca662    1.0000 0.08344  0.81196  0.55565  Biso   1.000  Ca
  Ca663    1.0000 0.08344  0.87482  0.55565  Biso   1.000  Ca
  Ca664    1.0000 0.16678  0.81231  0.55565  Biso   1.000  Ca
  Ca665    1.0000 0.22006  0.84338  0.56941  Biso   1.000  Ca
  P397     1.0000 0.24636  0.84338  0.59725  Biso   1.000  P 
  O1729    1.0000 0.10984  0.84338  0.55847  Biso   1.000  O 
  O1730    1.0000 0.01963  0.84338  0.59978  Biso   1.000  O 
  Ca666    1.0000 0.12429  0.84338  0.58343  Biso   1.000  Ca
  P398     1.0000 0.07904  0.84338  0.58662  Biso   1.000  P 
  O1731    1.0000 0.06700  0.84338  0.57141  Biso   1.000  O 
  O1732    1.0000 0.06449  0.84338  0.60050  Biso   1.000  O 
  Ca667    1.0000 0.03099  0.84338  0.56834  Biso   1.000  Ca
  P399     1.0000 0.17495  0.84338  0.59151  Biso   1.000  P 
  O1733    1.0000 0.19850  0.84338  0.59129  Biso   1.000  O 
  O1734    1.0000 0.16622  0.84338  0.57511  Biso   1.000  O 
  Ca668    1.0000 0.15518  0.78089  0.59611  Biso   1.000  Ca
  P400     1.0000 0.12886  0.78089  0.56827  Biso   1.000  P 
  O1735    1.0000 0.01539  0.78089  0.60705  Biso   1.000  O 
  O1736    1.0000 0.10560  0.78089  0.56574  Biso   1.000  O 
  Ca669    1.0000 0.00093  0.78089  0.58208  Biso   1.000  Ca
  P401     1.0000 0.04619  0.78089  0.57890  Biso   1.000  P 
  O1737    1.0000 0.05822  0.78089  0.59411  Biso   1.000  O 
  O1738    1.0000 0.06073  0.78089  0.56502  Biso   1.000  O 
  Ca670    1.0000 0.09422  0.78089  0.59719  Biso   1.000  Ca
  P402     1.0000 0.20028  0.78089  0.57400  Biso   1.000  P 
  O1739    1.0000 0.17672  0.78089  0.57423  Biso   1.000  O 
  O1740    1.0000 0.20900  0.78089  0.59041  Biso   1.000  O 
  O1741    1.0000 0.00011  0.77438  0.55565  Biso   1.000  O 
  O1742    1.0000 0.00011  0.83687  0.55565  Biso   1.000  O 
  H133     1.0000 0.00011  0.75420  0.55565  Biso   1.000  H 
  H134     1.0000 0.00022  0.81669  0.55561  Biso   1.000  H 
  O1743    1.0000 0.11442  0.86585  0.64248  Biso   1.000  O 
  O1744    1.0000 0.21786  0.86585  0.64083  Biso   1.000  O 
  O1745    1.0000 0.04305  0.86585  0.65473  Biso   1.000  O 
  O1746    1.0000 0.01080  0.80335  0.63147  Biso   1.000  O 
  O1747    1.0000 0.15736  0.80335  0.63313  Biso   1.000  O 
  O1748    1.0000 0.08217  0.80335  0.61922  Biso   1.000  O 
  O1749    1.0000 0.01080  0.75842  0.63147  Biso   1.000  O 
  O1750    1.0000 0.15736  0.75842  0.63313  Biso   1.000  O 
  O1751    1.0000 0.08217  0.75842  0.61922  Biso   1.000  O 
  O1752    1.0000 0.11442  0.82093  0.64248  Biso   1.000  O 
  O1753    1.0000 0.21786  0.82093  0.64083  Biso   1.000  O 
  O1754    1.0000 0.04305  0.82093  0.65473  Biso   1.000  O 
  Ca671    1.0000 0.04178  0.87445  0.60986  Biso   1.000  Ca
  Ca672    1.0000 0.20844  0.81196  0.60987  Biso   1.000  Ca
  Ca673    1.0000 0.20844  0.87482  0.60987  Biso   1.000  Ca
  Ca674    1.0000 0.04178  0.81231  0.60986  Biso   1.000  Ca
  Ca675    1.0000 0.09506  0.84338  0.62363  Biso   1.000  Ca
  P403     1.0000 0.12136  0.84338  0.65147  Biso   1.000  P 
  O1755    1.0000 0.23484  0.84338  0.61269  Biso   1.000  O 
  O1756    1.0000 0.14463  0.84338  0.65400  Biso   1.000  O 
  Ca676    1.0000 0.24929  0.84338  0.63765  Biso   1.000  Ca
  P404     1.0000 0.20404  0.84338  0.64084  Biso   1.000  P 
  O1757    1.0000 0.19200  0.84338  0.62563  Biso   1.000  O 
  O1758    1.0000 0.18949  0.84338  0.65471  Biso   1.000  O 
  Ca677    1.0000 0.15599  0.84338  0.62255  Biso   1.000  Ca
  P405     1.0000 0.04995  0.84338  0.64573  Biso   1.000  P 
  O1759    1.0000 0.07350  0.84338  0.64551  Biso   1.000  O 
  O1760    1.0000 0.04122  0.84338  0.62933  Biso   1.000  O 
  Ca678    1.0000 0.03018  0.78089  0.65033  Biso   1.000  Ca
  P406     1.0000 0.00386  0.78089  0.62248  Biso   1.000  P 
  O1761    1.0000 0.14039  0.78089  0.66127  Biso   1.000  O 
  O1762    1.0000 0.23060  0.78089  0.61996  Biso   1.000  O 
  Ca679    1.0000 0.12593  0.78089  0.63630  Biso   1.000  Ca
  P407     1.0000 0.17119  0.78089  0.63312  Biso   1.000  P 
  O1763    1.0000 0.18322  0.78089  0.64833  Biso   1.000  O 
  O1764    1.0000 0.18573  0.78089  0.61924  Biso   1.000  O 
  Ca680    1.0000 0.21922  0.78089  0.65141  Biso   1.000  Ca
  P408     1.0000 0.07528  0.78089  0.62822  Biso   1.000  P 
  O1765    1.0000 0.05172  0.78089  0.62845  Biso   1.000  O 
  O1766    1.0000 0.08400  0.78089  0.64462  Biso   1.000  O 
  O1767    1.0000 0.12511  0.77438  0.60987  Biso   1.000  O 
  O1768    1.0000 0.12511  0.83687  0.60987  Biso   1.000  O 
  H135     1.0000 0.12511  0.75420  0.60987  Biso   1.000  H 
  H136     1.0000 0.12522  0.81669  0.60982  Biso   1.000  H 
  O1769    1.0000 0.23942  0.86585  0.69670  Biso   1.000  O 
  O1770    1.0000 0.09286  0.86585  0.69504  Biso   1.000  O 
  O1771    1.0000 0.16805  0.86585  0.70895  Biso   1.000  O 
  O1772    1.0000 0.13580  0.80335  0.68569  Biso   1.000  O 
  O1773    1.0000 0.03236  0.80335  0.68734  Biso   1.000  O 
  O1774    1.0000 0.20717  0.80335  0.67344  Biso   1.000  O 
  O1775    1.0000 0.13580  0.75842  0.68569  Biso   1.000  O 
  O1776    1.0000 0.03236  0.75842  0.68734  Biso   1.000  O 
  O1777    1.0000 0.20717  0.75842  0.67344  Biso   1.000  O 
  O1778    1.0000 0.23942  0.82093  0.69670  Biso   1.000  O 
  O1779    1.0000 0.09286  0.82093  0.69504  Biso   1.000  O 
  O1780    1.0000 0.16805  0.82093  0.70895  Biso   1.000  O 
  Ca681    1.0000 0.16678  0.87445  0.66408  Biso   1.000  Ca
  Ca682    1.0000 0.08344  0.81196  0.66409  Biso   1.000  Ca
  Ca683    1.0000 0.08344  0.87482  0.66409  Biso   1.000  Ca
  Ca684    1.0000 0.16678  0.81231  0.66408  Biso   1.000  Ca
  Ca685    1.0000 0.22006  0.84338  0.67784  Biso   1.000  Ca
  P409     1.0000 0.24636  0.84338  0.70569  Biso   1.000  P 
  O1781    1.0000 0.10984  0.84338  0.66691  Biso   1.000  O 
  O1782    1.0000 0.01963  0.84338  0.70822  Biso   1.000  O 
  Ca686    1.0000 0.12429  0.84338  0.69187  Biso   1.000  Ca
  P410     1.0000 0.07904  0.84338  0.69506  Biso   1.000  P 
  O1783    1.0000 0.06700  0.84338  0.67985  Biso   1.000  O 
  O1784    1.0000 0.06449  0.84338  0.70893  Biso   1.000  O 
  Ca687    1.0000 0.03099  0.84338  0.67677  Biso   1.000  Ca
  P411     1.0000 0.17495  0.84338  0.69995  Biso   1.000  P 
  O1785    1.0000 0.19850  0.84338  0.69973  Biso   1.000  O 
  O1786    1.0000 0.16622  0.84338  0.68355  Biso   1.000  O 
  Ca688    1.0000 0.15518  0.78089  0.70455  Biso   1.000  Ca
  P412     1.0000 0.12886  0.78089  0.67670  Biso   1.000  P 
  O1787    1.0000 0.01539  0.78089  0.71548  Biso   1.000  O 
  O1788    1.0000 0.10560  0.78089  0.67418  Biso   1.000  O 
  Ca689    1.0000 0.00093  0.78089  0.69052  Biso   1.000  Ca
  P413     1.0000 0.04619  0.78089  0.68733  Biso   1.000  P 
  O1789    1.0000 0.05822  0.78089  0.70255  Biso   1.000  O 
  O1790    1.0000 0.06073  0.78089  0.67346  Biso   1.000  O 
  Ca690    1.0000 0.09422  0.78089  0.70563  Biso   1.000  Ca
  P414     1.0000 0.20028  0.78089  0.68244  Biso   1.000  P 
  O1791    1.0000 0.17672  0.78089  0.68266  Biso   1.000  O 
  O1792    1.0000 0.20900  0.78089  0.69884  Biso   1.000  O 
  O1793    1.0000 0.00011  0.77438  0.66409  Biso   1.000  O 
  O1794    1.0000 0.00011  0.83687  0.66409  Biso   1.000  O 
  H137     1.0000 0.00011  0.75420  0.66409  Biso   1.000  H 
  H138     1.0000 0.00022  0.81669  0.66404  Biso   1.000  H 
  O1795    1.0000 0.11442  0.86585  0.75091  Biso   1.000  O 
  O1796    1.0000 0.21786  0.86585  0.74926  Biso   1.000  O 
  O1797    1.0000 0.04305  0.86585  0.76317  Biso   1.000  O 
  O1798    1.0000 0.01080  0.80335  0.73991  Biso   1.000  O 
  O1799    1.0000 0.15736  0.80335  0.74156  Biso   1.000  O 
  O1800    1.0000 0.08217  0.80335  0.72766  Biso   1.000  O 
  O1801    1.0000 0.01080  0.75842  0.73991  Biso   1.000  O 
  O1802    1.0000 0.15736  0.75842  0.74156  Biso   1.000  O 
  O1803    1.0000 0.08217  0.75842  0.72766  Biso   1.000  O 
  O1804    1.0000 0.11442  0.82093  0.75091  Biso   1.000  O 
  O1805    1.0000 0.21786  0.82093  0.74926  Biso   1.000  O 
  O1806    1.0000 0.04305  0.82093  0.76317  Biso   1.000  O 
  Ca691    1.0000 0.04178  0.87445  0.71830  Biso   1.000  Ca
  Ca692    1.0000 0.20844  0.81196  0.71831  Biso   1.000  Ca
  Ca693    1.0000 0.20844  0.87482  0.71831  Biso   1.000  Ca
  Ca694    1.0000 0.04178  0.81231  0.71830  Biso   1.000  Ca
  Ca695    1.0000 0.09506  0.84338  0.73206  Biso   1.000  Ca
  P415     1.0000 0.12136  0.84338  0.75990  Biso   1.000  P 
  O1807    1.0000 0.23484  0.84338  0.72113  Biso   1.000  O 
  O1808    1.0000 0.14463  0.84338  0.76243  Biso   1.000  O 
  Ca696    1.0000 0.24929  0.84338  0.74609  Biso   1.000  Ca
  P416     1.0000 0.20404  0.84338  0.74928  Biso   1.000  P 
  O1809    1.0000 0.19200  0.84338  0.73407  Biso   1.000  O 
  O1810    1.0000 0.18949  0.84338  0.76315  Biso   1.000  O 
  Ca697    1.0000 0.15599  0.84338  0.73099  Biso   1.000  Ca
  P417     1.0000 0.04995  0.84338  0.75417  Biso   1.000  P 
  O1811    1.0000 0.07350  0.84338  0.75394  Biso   1.000  O 
  O1812    1.0000 0.04122  0.84338  0.73776  Biso   1.000  O 
  Ca698    1.0000 0.03018  0.78089  0.75877  Biso   1.000  Ca
  P418     1.0000 0.00386  0.78089  0.73092  Biso   1.000  P 
  O1813    1.0000 0.14039  0.78089  0.76970  Biso   1.000  O 
  O1814    1.0000 0.23060  0.78089  0.72840  Biso   1.000  O 
  Ca699    1.0000 0.12593  0.78089  0.74474  Biso   1.000  Ca
  P419     1.0000 0.17119  0.78089  0.74155  Biso   1.000  P 
  O1815    1.0000 0.18322  0.78089  0.75677  Biso   1.000  O 
  O1816    1.0000 0.18573  0.78089  0.72767  Biso   1.000  O 
  Ca700    1.0000 0.21922  0.78089  0.75984  Biso   1.000  Ca
  P420     1.0000 0.07528  0.78089  0.73666  Biso   1.000  P 
  O1817    1.0000 0.05172  0.78089  0.73688  Biso   1.000  O 
  O1818    1.0000 0.08400  0.78089  0.75306  Biso   1.000  O 
  O1819    1.0000 0.12511  0.77438  0.71831  Biso   1.000  O 
  O1820    1.0000 0.12511  0.83687  0.71831  Biso   1.000  O 
  H139     1.0000 0.12511  0.75420  0.71831  Biso   1.000  H 
  H140     1.0000 0.12522  0.81669  0.71826  Biso   1.000  H 
  O1821    1.0000 0.23942  0.99085  0.26295  Biso   1.000  O 
  O1822    1.0000 0.09286  0.99085  0.26130  Biso   1.000  O 
  O1823    1.0000 0.16805  0.99085  0.27520  Biso   1.000  O 
  O1824    1.0000 0.13580  0.92835  0.25195  Biso   1.000  O 
  O1825    1.0000 0.03236  0.92835  0.25360  Biso   1.000  O 
  O1826    1.0000 0.20717  0.92835  0.23970  Biso   1.000  O 
  O1827    1.0000 0.13580  0.88342  0.25195  Biso   1.000  O 
  O1828    1.0000 0.03236  0.88342  0.25360  Biso   1.000  O 
  O1829    1.0000 0.20717  0.88342  0.23970  Biso   1.000  O 
  O1830    1.0000 0.23942  0.94593  0.26295  Biso   1.000  O 
  O1831    1.0000 0.09286  0.94593  0.26130  Biso   1.000  O 
  O1832    1.0000 0.16805  0.94593  0.27520  Biso   1.000  O 
  Ca701    1.0000 0.16678  0.99945  0.23034  Biso   1.000  Ca
  Ca702    1.0000 0.08344  0.93696  0.23035  Biso   1.000  Ca
  Ca703    1.0000 0.08344  0.99982  0.23035  Biso   1.000  Ca
  Ca704    1.0000 0.16678  0.93731  0.23034  Biso   1.000  Ca
  Ca705    1.0000 0.22006  0.96838  0.24410  Biso   1.000  Ca
  P421     1.0000 0.24636  0.96838  0.27194  Biso   1.000  P 
  O1833    1.0000 0.10984  0.96838  0.23317  Biso   1.000  O 
  O1834    1.0000 0.01963  0.96838  0.27447  Biso   1.000  O 
  Ca706    1.0000 0.12429  0.96838  0.25813  Biso   1.000  Ca
  P422     1.0000 0.07904  0.96838  0.26132  Biso   1.000  P 
  O1835    1.0000 0.06700  0.96838  0.24611  Biso   1.000  O 
  O1836    1.0000 0.06449  0.96838  0.27519  Biso   1.000  O 
  Ca707    1.0000 0.03099  0.96838  0.24303  Biso   1.000  Ca
  P423     1.0000 0.17495  0.96838  0.26620  Biso   1.000  P 
  O1837    1.0000 0.19850  0.96838  0.26598  Biso   1.000  O 
  O1838    1.0000 0.16622  0.96838  0.24980  Biso   1.000  O 
  Ca708    1.0000 0.15518  0.90589  0.27081  Biso   1.000  Ca
  P424     1.0000 0.12886  0.90589  0.24296  Biso   1.000  P 
  O1839    1.0000 0.01539  0.90589  0.28174  Biso   1.000  O 
  O1840    1.0000 0.10560  0.90589  0.24043  Biso   1.000  O 
  Ca709    1.0000 0.00093  0.90589  0.25677  Biso   1.000  Ca
  P425     1.0000 0.04619  0.90589  0.25359  Biso   1.000  P 
  O1841    1.0000 0.05822  0.90589  0.26880  Biso   1.000  O 
  O1842    1.0000 0.06073  0.90589  0.23971  Biso   1.000  O 
  Ca710    1.0000 0.09422  0.90589  0.27188  Biso   1.000  Ca
  P426     1.0000 0.20028  0.90589  0.24870  Biso   1.000  P 
  O1843    1.0000 0.17672  0.90589  0.24892  Biso   1.000  O 
  O1844    1.0000 0.20900  0.90589  0.26510  Biso   1.000  O 
  O1845    1.0000 0.00011  0.89938  0.23034  Biso   1.000  O 
  O1846    1.0000 0.00011  0.96187  0.23034  Biso   1.000  O 
  H141     1.0000 0.00011  0.87920  0.23034  Biso   1.000  H 
  H142     1.0000 0.00022  0.94169  0.23030  Biso   1.000  H 
  O1847    1.0000 0.11442  0.99085  0.31717  Biso   1.000  O 
  O1848    1.0000 0.21786  0.99085  0.31552  Biso   1.000  O 
  O1849    1.0000 0.04305  0.99085  0.32942  Biso   1.000  O 
  O1850    1.0000 0.01080  0.92835  0.30617  Biso   1.000  O 
  O1851    1.0000 0.15736  0.92835  0.30782  Biso   1.000  O 
  O1852    1.0000 0.08217  0.92835  0.29391  Biso   1.000  O 
  O1853    1.0000 0.01080  0.88342  0.30617  Biso   1.000  O 
  O1854    1.0000 0.15736  0.88342  0.30782  Biso   1.000  O 
  O1855    1.0000 0.08217  0.88342  0.29391  Biso   1.000  O 
  O1856    1.0000 0.11442  0.94593  0.31717  Biso   1.000  O 
  O1857    1.0000 0.21786  0.94593  0.31552  Biso   1.000  O 
  O1858    1.0000 0.04305  0.94593  0.32942  Biso   1.000  O 
  Ca711    1.0000 0.04178  0.99945  0.28456  Biso   1.000  Ca
  Ca712    1.0000 0.20844  0.93696  0.28456  Biso   1.000  Ca
  Ca713    1.0000 0.20844  0.99982  0.28456  Biso   1.000  Ca
  Ca714    1.0000 0.04178  0.93731  0.28456  Biso   1.000  Ca
  Ca715    1.0000 0.09506  0.96838  0.29832  Biso   1.000  Ca
  P427     1.0000 0.12136  0.96838  0.32616  Biso   1.000  P 
  O1859    1.0000 0.23484  0.96838  0.28738  Biso   1.000  O 
  O1860    1.0000 0.14463  0.96838  0.32869  Biso   1.000  O 
  Ca716    1.0000 0.24929  0.96838  0.31234  Biso   1.000  Ca
  P428     1.0000 0.20404  0.96838  0.31554  Biso   1.000  P 
  O1861    1.0000 0.19200  0.96838  0.30033  Biso   1.000  O 
  O1862    1.0000 0.18949  0.96838  0.32941  Biso   1.000  O 
  Ca717    1.0000 0.15599  0.96838  0.29725  Biso   1.000  Ca
  P429     1.0000 0.04995  0.96838  0.32042  Biso   1.000  P 
  O1863    1.0000 0.07350  0.96838  0.32020  Biso   1.000  O 
  O1864    1.0000 0.04122  0.96838  0.30402  Biso   1.000  O 
  Ca718    1.0000 0.03018  0.90589  0.32502  Biso   1.000  Ca
  P430     1.0000 0.00386  0.90589  0.29718  Biso   1.000  P 
  O1865    1.0000 0.14039  0.90589  0.33596  Biso   1.000  O 
  O1866    1.0000 0.23060  0.90589  0.29465  Biso   1.000  O 
  Ca719    1.0000 0.12593  0.90589  0.31099  Biso   1.000  Ca
  P431     1.0000 0.17119  0.90589  0.30781  Biso   1.000  P 
  O1867    1.0000 0.18322  0.90589  0.32302  Biso   1.000  O 
  O1868    1.0000 0.18573  0.90589  0.29393  Biso   1.000  O 
  Ca720    1.0000 0.21922  0.90589  0.32610  Biso   1.000  Ca
  P432     1.0000 0.07528  0.90589  0.30291  Biso   1.000  P 
  O1869    1.0000 0.05172  0.90589  0.30314  Biso   1.000  O 
  O1870    1.0000 0.08400  0.90589  0.31932  Biso   1.000  O 
  O1871    1.0000 0.12511  0.89938  0.28456  Biso   1.000  O 
  O1872    1.0000 0.12511  0.96187  0.28456  Biso   1.000  O 
  H143     1.0000 0.12511  0.87920  0.28456  Biso   1.000  H 
  H144     1.0000 0.12522  0.94169  0.28452  Biso   1.000  H 
  O1873    1.0000 0.23942  0.99085  0.37139  Biso   1.000  O 
  O1874    1.0000 0.09286  0.99085  0.36974  Biso   1.000  O 
  O1875    1.0000 0.16805  0.99085  0.38364  Biso   1.000  O 
  O1876    1.0000 0.13580  0.92835  0.36038  Biso   1.000  O 
  O1877    1.0000 0.03236  0.92835  0.36204  Biso   1.000  O 
  O1878    1.0000 0.20717  0.92835  0.34813  Biso   1.000  O 
  O1879    1.0000 0.13580  0.88342  0.36038  Biso   1.000  O 
  O1880    1.0000 0.03236  0.88342  0.36204  Biso   1.000  O 
  O1881    1.0000 0.20717  0.88342  0.34813  Biso   1.000  O 
  O1882    1.0000 0.23942  0.94593  0.37139  Biso   1.000  O 
  O1883    1.0000 0.09286  0.94593  0.36974  Biso   1.000  O 
  O1884    1.0000 0.16805  0.94593  0.38364  Biso   1.000  O 
  Ca721    1.0000 0.16678  0.99945  0.33877  Biso   1.000  Ca
  Ca722    1.0000 0.08344  0.93696  0.33878  Biso   1.000  Ca
  Ca723    1.0000 0.08344  0.99982  0.33878  Biso   1.000  Ca
  Ca724    1.0000 0.16678  0.93731  0.33877  Biso   1.000  Ca
  Ca725    1.0000 0.22006  0.96838  0.35254  Biso   1.000  Ca
  P433     1.0000 0.24636  0.96838  0.38038  Biso   1.000  P 
  O1885    1.0000 0.10984  0.96838  0.34160  Biso   1.000  O 
  O1886    1.0000 0.01963  0.96838  0.38291  Biso   1.000  O 
  Ca726    1.0000 0.12429  0.96838  0.36656  Biso   1.000  Ca
  P434     1.0000 0.07904  0.96838  0.36975  Biso   1.000  P 
  O1887    1.0000 0.06700  0.96838  0.35454  Biso   1.000  O 
  O1888    1.0000 0.06449  0.96838  0.38362  Biso   1.000  O 
  Ca727    1.0000 0.03099  0.96838  0.35146  Biso   1.000  Ca
  P435     1.0000 0.17495  0.96838  0.37464  Biso   1.000  P 
  O1889    1.0000 0.19850  0.96838  0.37442  Biso   1.000  O 
  O1890    1.0000 0.16622  0.96838  0.35824  Biso   1.000  O 
  Ca728    1.0000 0.15518  0.90589  0.37924  Biso   1.000  Ca
  P436     1.0000 0.12886  0.90589  0.35140  Biso   1.000  P 
  O1891    1.0000 0.01539  0.90589  0.39018  Biso   1.000  O 
  O1892    1.0000 0.10560  0.90589  0.34887  Biso   1.000  O 
  Ca729    1.0000 0.00093  0.90589  0.36521  Biso   1.000  Ca
  P437     1.0000 0.04619  0.90589  0.36203  Biso   1.000  P 
  O1893    1.0000 0.05822  0.90589  0.37724  Biso   1.000  O 
  O1894    1.0000 0.06073  0.90589  0.34815  Biso   1.000  O 
  Ca730    1.0000 0.09422  0.90589  0.38032  Biso   1.000  Ca
  P438     1.0000 0.20028  0.90589  0.35713  Biso   1.000  P 
  O1895    1.0000 0.17672  0.90589  0.35736  Biso   1.000  O 
  O1896    1.0000 0.20900  0.90589  0.37353  Biso   1.000  O 
  O1897    1.0000 0.00011  0.89938  0.33878  Biso   1.000  O 
  O1898    1.0000 0.00011  0.96187  0.33878  Biso   1.000  O 
  H145     1.0000 0.00011  0.87920  0.33878  Biso   1.000  H 
  H146     1.0000 0.00022  0.94169  0.33873  Biso   1.000  H 
  O1899    1.0000 0.11442  0.99085  0.42561  Biso   1.000  O 
  O1900    1.0000 0.21786  0.99085  0.42395  Biso   1.000  O 
  O1901    1.0000 0.04305  0.99085  0.43786  Biso   1.000  O 
  O1902    1.0000 0.01080  0.92835  0.41460  Biso   1.000  O 
  O1903    1.0000 0.15736  0.92835  0.41625  Biso   1.000  O 
  O1904    1.0000 0.08217  0.92835  0.40235  Biso   1.000  O 
  O1905    1.0000 0.01080  0.88342  0.41460  Biso   1.000  O 
  O1906    1.0000 0.15736  0.88342  0.41625  Biso   1.000  O 
  O1907    1.0000 0.08217  0.88342  0.40235  Biso   1.000  O 
  O1908    1.0000 0.11442  0.94593  0.42561  Biso   1.000  O 
  O1909    1.0000 0.21786  0.94593  0.42395  Biso   1.000  O 
  O1910    1.0000 0.04305  0.94593  0.43786  Biso   1.000  O 
  Ca731    1.0000 0.04178  0.99945  0.39299  Biso   1.000  Ca
  Ca732    1.0000 0.20844  0.93696  0.39300  Biso   1.000  Ca
  Ca733    1.0000 0.20844  0.99982  0.39300  Biso   1.000  Ca
  Ca734    1.0000 0.04178  0.93731  0.39299  Biso   1.000  Ca
  Ca735    1.0000 0.09506  0.96838  0.40675  Biso   1.000  Ca
  P439     1.0000 0.12136  0.96838  0.43460  Biso   1.000  P 
  O1911    1.0000 0.23484  0.96838  0.39582  Biso   1.000  O 
  O1912    1.0000 0.14463  0.96838  0.43713  Biso   1.000  O 
  Ca736    1.0000 0.24929  0.96838  0.42078  Biso   1.000  Ca
  P440     1.0000 0.20404  0.96838  0.42397  Biso   1.000  P 
  O1913    1.0000 0.19200  0.96838  0.40876  Biso   1.000  O 
  O1914    1.0000 0.18949  0.96838  0.43784  Biso   1.000  O 
  Ca737    1.0000 0.15599  0.96838  0.40568  Biso   1.000  Ca
  P441     1.0000 0.04995  0.96838  0.42886  Biso   1.000  P 
  O1915    1.0000 0.07350  0.96838  0.42864  Biso   1.000  O 
  O1916    1.0000 0.04122  0.96838  0.41246  Biso   1.000  O 
  Ca738    1.0000 0.03018  0.90589  0.43346  Biso   1.000  Ca
  P442     1.0000 0.00386  0.90589  0.40561  Biso   1.000  P 
  O1917    1.0000 0.14039  0.90589  0.44439  Biso   1.000  O 
  O1918    1.0000 0.23060  0.90589  0.40309  Biso   1.000  O 
  Ca739    1.0000 0.12593  0.90589  0.41943  Biso   1.000  Ca
  P443     1.0000 0.17119  0.90589  0.41624  Biso   1.000  P 
  O1919    1.0000 0.18322  0.90589  0.43146  Biso   1.000  O 
  O1920    1.0000 0.18573  0.90589  0.40237  Biso   1.000  O 
  Ca740    1.0000 0.21922  0.90589  0.43454  Biso   1.000  Ca
  P444     1.0000 0.07528  0.90589  0.41135  Biso   1.000  P 
  O1921    1.0000 0.05172  0.90589  0.41157  Biso   1.000  O 
  O1922    1.0000 0.08400  0.90589  0.42775  Biso   1.000  O 
  O1923    1.0000 0.12511  0.89938  0.39300  Biso   1.000  O 
  O1924    1.0000 0.12511  0.96187  0.39300  Biso   1.000  O 
  H147     1.0000 0.12511  0.87920  0.39300  Biso   1.000  H 
  H148     1.0000 0.12522  0.94169  0.39295  Biso   1.000  H 
  O1925    1.0000 0.23942  0.99085  0.47982  Biso   1.000  O 
  O1926    1.0000 0.09286  0.99085  0.47817  Biso   1.000  O 
  O1927    1.0000 0.16805  0.99085  0.49208  Biso   1.000  O 
  O1928    1.0000 0.13580  0.92835  0.46882  Biso   1.000  O 
  O1929    1.0000 0.03236  0.92835  0.47047  Biso   1.000  O 
  O1930    1.0000 0.20717  0.92835  0.45657  Biso   1.000  O 
  O1931    1.0000 0.13580  0.88342  0.46882  Biso   1.000  O 
  O1932    1.0000 0.03236  0.88342  0.47047  Biso   1.000  O 
  O1933    1.0000 0.20717  0.88342  0.45657  Biso   1.000  O 
  O1934    1.0000 0.23942  0.94593  0.47982  Biso   1.000  O 
  O1935    1.0000 0.09286  0.94593  0.47817  Biso   1.000  O 
  O1936    1.0000 0.16805  0.94593  0.49208  Biso   1.000  O 
  Ca741    1.0000 0.16678  0.99945  0.44721  Biso   1.000  Ca
  Ca742    1.0000 0.08344  0.93696  0.44722  Biso   1.000  Ca
  Ca743    1.0000 0.08344  0.99982  0.44722  Biso   1.000  Ca
  Ca744    1.0000 0.16678  0.93731  0.44721  Biso   1.000  Ca
  Ca745    1.0000 0.22006  0.96838  0.46097  Biso   1.000  Ca
  P445     1.0000 0.24636  0.96838  0.48881  Biso   1.000  P 
  O1937    1.0000 0.10984  0.96838  0.45004  Biso   1.000  O 
  O1938    1.0000 0.01963  0.96838  0.49134  Biso   1.000  O 
  Ca746    1.0000 0.12429  0.96838  0.47500  Biso   1.000  Ca
  P446     1.0000 0.07904  0.96838  0.47819  Biso   1.000  P 
  O1939    1.0000 0.06700  0.96838  0.46298  Biso   1.000  O 
  O1940    1.0000 0.06449  0.96838  0.49206  Biso   1.000  O 
  Ca747    1.0000 0.03099  0.96838  0.45990  Biso   1.000  Ca
  P447     1.0000 0.17495  0.96838  0.48308  Biso   1.000  P 
  O1941    1.0000 0.19850  0.96838  0.48285  Biso   1.000  O 
  O1942    1.0000 0.16622  0.96838  0.46667  Biso   1.000  O 
  Ca748    1.0000 0.15518  0.90589  0.48768  Biso   1.000  Ca
  P448     1.0000 0.12886  0.90589  0.45983  Biso   1.000  P 
  O1943    1.0000 0.01539  0.90589  0.49861  Biso   1.000  O 
  O1944    1.0000 0.10560  0.90589  0.45731  Biso   1.000  O 
  Ca749    1.0000 0.00093  0.90589  0.47365  Biso   1.000  Ca
  P449     1.0000 0.04619  0.90589  0.47046  Biso   1.000  P 
  O1945    1.0000 0.05822  0.90589  0.48568  Biso   1.000  O 
  O1946    1.0000 0.06073  0.90589  0.45658  Biso   1.000  O 
  Ca750    1.0000 0.09422  0.90589  0.48875  Biso   1.000  Ca
  P450     1.0000 0.20028  0.90589  0.46557  Biso   1.000  P 
  O1947    1.0000 0.17672  0.90589  0.46579  Biso   1.000  O 
  O1948    1.0000 0.20900  0.90589  0.48197  Biso   1.000  O 
  O1949    1.0000 0.00011  0.89938  0.44722  Biso   1.000  O 
  O1950    1.0000 0.00011  0.96187  0.44722  Biso   1.000  O 
  H149     1.0000 0.00011  0.87920  0.44722  Biso   1.000  H 
  H150     1.0000 0.00022  0.94169  0.44717  Biso   1.000  H 
  O1951    1.0000 0.11442  0.99085  0.53404  Biso   1.000  O 
  O1952    1.0000 0.21786  0.99085  0.53239  Biso   1.000  O 
  O1953    1.0000 0.04305  0.99085  0.54629  Biso   1.000  O 
  O1954    1.0000 0.01080  0.92835  0.52304  Biso   1.000  O 
  O1955    1.0000 0.15736  0.92835  0.52469  Biso   1.000  O 
  O1956    1.0000 0.08217  0.92835  0.51079  Biso   1.000  O 
  O1957    1.0000 0.01080  0.88342  0.52304  Biso   1.000  O 
  O1958    1.0000 0.15736  0.88342  0.52469  Biso   1.000  O 
  O1959    1.0000 0.08217  0.88342  0.51079  Biso   1.000  O 
  O1960    1.0000 0.11442  0.94593  0.53404  Biso   1.000  O 
  O1961    1.0000 0.21786  0.94593  0.53239  Biso   1.000  O 
  O1962    1.0000 0.04305  0.94593  0.54629  Biso   1.000  O 
  Ca751    1.0000 0.04178  0.99945  0.50143  Biso   1.000  Ca
  Ca752    1.0000 0.20844  0.93696  0.50144  Biso   1.000  Ca
  Ca753    1.0000 0.20844  0.99982  0.50144  Biso   1.000  Ca
  Ca754    1.0000 0.04178  0.93731  0.50143  Biso   1.000  Ca
  Ca755    1.0000 0.09506  0.96838  0.51519  Biso   1.000  Ca
  P451     1.0000 0.12136  0.96838  0.54303  Biso   1.000  P 
  O1963    1.0000 0.23484  0.96838  0.50426  Biso   1.000  O 
  O1964    1.0000 0.14463  0.96838  0.54556  Biso   1.000  O 
  Ca756    1.0000 0.24929  0.96838  0.52922  Biso   1.000  Ca
  P452     1.0000 0.20404  0.96838  0.53241  Biso   1.000  P 
  O1965    1.0000 0.19200  0.96838  0.51720  Biso   1.000  O 
  O1966    1.0000 0.18949  0.96838  0.54628  Biso   1.000  O 
  Ca757    1.0000 0.15599  0.96838  0.51412  Biso   1.000  Ca
  P453     1.0000 0.04995  0.96838  0.53729  Biso   1.000  P 
  O1967    1.0000 0.07350  0.96838  0.53707  Biso   1.000  O 
  O1968    1.0000 0.04122  0.96838  0.52089  Biso   1.000  O 
  Ca758    1.0000 0.03018  0.90589  0.54190  Biso   1.000  Ca
  P454     1.0000 0.00386  0.90589  0.51405  Biso   1.000  P 
  O1969    1.0000 0.14039  0.90589  0.55283  Biso   1.000  O 
  O1970    1.0000 0.23060  0.90589  0.51152  Biso   1.000  O 
  Ca759    1.0000 0.12593  0.90589  0.52786  Biso   1.000  Ca
  P455     1.0000 0.17119  0.90589  0.52468  Biso   1.000  P 
  O1971    1.0000 0.18322  0.90589  0.53989  Biso   1.000  O 
  O1972    1.0000 0.18573  0.90589  0.51080  Biso   1.000  O 
  Ca760    1.0000 0.21922  0.90589  0.54297  Biso   1.000  Ca
  P456     1.0000 0.07528  0.90589  0.51979  Biso   1.000  P 
  O1973    1.0000 0.05172  0.90589  0.52001  Biso   1.000  O 
  O1974    1.0000 0.08400  0.90589  0.53619  Biso   1.000  O 
  O1975    1.0000 0.12511  0.89938  0.50143  Biso   1.000  O 
  O1976    1.0000 0.12511  0.96187  0.50143  Biso   1.000  O 
  H151     1.0000 0.12511  0.87920  0.50143  Biso   1.000  H 
  H152     1.0000 0.12522  0.94169  0.50139  Biso   1.000  H 
  O1977    1.0000 0.23942  0.99085  0.58826  Biso   1.000  O 
  O1978    1.0000 0.09286  0.99085  0.58661  Biso   1.000  O 
  O1979    1.0000 0.16805  0.99085  0.60051  Biso   1.000  O 
  O1980    1.0000 0.13580  0.92835  0.57726  Biso   1.000  O 
  O1981    1.0000 0.03236  0.92835  0.57891  Biso   1.000  O 
  O1982    1.0000 0.20717  0.92835  0.56500  Biso   1.000  O 
  O1983    1.0000 0.13580  0.88342  0.57726  Biso   1.000  O 
  O1984    1.0000 0.03236  0.88342  0.57891  Biso   1.000  O 
  O1985    1.0000 0.20717  0.88342  0.56500  Biso   1.000  O 
  O1986    1.0000 0.23942  0.94593  0.58826  Biso   1.000  O 
  O1987    1.0000 0.09286  0.94593  0.58661  Biso   1.000  O 
  O1988    1.0000 0.16805  0.94593  0.60051  Biso   1.000  O 
  Ca761    1.0000 0.16678  0.99945  0.55565  Biso   1.000  Ca
  Ca762    1.0000 0.08344  0.93696  0.55565  Biso   1.000  Ca
  Ca763    1.0000 0.08344  0.99982  0.55565  Biso   1.000  Ca
  Ca764    1.0000 0.16678  0.93731  0.55565  Biso   1.000  Ca
  Ca765    1.0000 0.22006  0.96838  0.56941  Biso   1.000  Ca
  P457     1.0000 0.24636  0.96838  0.59725  Biso   1.000  P 
  O1989    1.0000 0.10984  0.96838  0.55847  Biso   1.000  O 
  O1990    1.0000 0.01963  0.96838  0.59978  Biso   1.000  O 
  Ca766    1.0000 0.12429  0.96838  0.58343  Biso   1.000  Ca
  P458     1.0000 0.07904  0.96838  0.58662  Biso   1.000  P 
  O1991    1.0000 0.06700  0.96838  0.57141  Biso   1.000  O 
  O1992    1.0000 0.06449  0.96838  0.60050  Biso   1.000  O 
  Ca767    1.0000 0.03099  0.96838  0.56834  Biso   1.000  Ca
  P459     1.0000 0.17495  0.96838  0.59151  Biso   1.000  P 
  O1993    1.0000 0.19850  0.96838  0.59129  Biso   1.000  O 
  O1994    1.0000 0.16622  0.96838  0.57511  Biso   1.000  O 
  Ca768    1.0000 0.15518  0.90589  0.59611  Biso   1.000  Ca
  P460     1.0000 0.12886  0.90589  0.56827  Biso   1.000  P 
  O1995    1.0000 0.01539  0.90589  0.60705  Biso   1.000  O 
  O1996    1.0000 0.10560  0.90589  0.56574  Biso   1.000  O 
  Ca769    1.0000 0.00093  0.90589  0.58208  Biso   1.000  Ca
  P461     1.0000 0.04619  0.90589  0.57890  Biso   1.000  P 
  O1997    1.0000 0.05822  0.90589  0.59411  Biso   1.000  O 
  O1998    1.0000 0.06073  0.90589  0.56502  Biso   1.000  O 
  Ca770    1.0000 0.09422  0.90589  0.59719  Biso   1.000  Ca
  P462     1.0000 0.20028  0.90589  0.57400  Biso   1.000  P 
  O1999    1.0000 0.17672  0.90589  0.57423  Biso   1.000  O 
  O2000    1.0000 0.20900  0.90589  0.59041  Biso   1.000  O 
  O2001    1.0000 0.00011  0.89938  0.55565  Biso   1.000  O 
  O2002    1.0000 0.00011  0.96187  0.55565  Biso   1.000  O 
  H153     1.0000 0.00011  0.87920  0.55565  Biso   1.000  H 
  H154     1.0000 0.00022  0.94169  0.55561  Biso   1.000  H 
  O2003    1.0000 0.11442  0.99085  0.64248  Biso   1.000  O 
  O2004    1.0000 0.21786  0.99085  0.64083  Biso   1.000  O 
  O2005    1.0000 0.04305  0.99085  0.65473  Biso   1.000  O 
  O2006    1.0000 0.01080  0.92835  0.63147  Biso   1.000  O 
  O2007    1.0000 0.15736  0.92835  0.63313  Biso   1.000  O 
  O2008    1.0000 0.08217  0.92835  0.61922  Biso   1.000  O 
  O2009    1.0000 0.01080  0.88342  0.63147  Biso   1.000  O 
  O2010    1.0000 0.15736  0.88342  0.63313  Biso   1.000  O 
  O2011    1.0000 0.08217  0.88342  0.61922  Biso   1.000  O 
  O2012    1.0000 0.11442  0.94593  0.64248  Biso   1.000  O 
  O2013    1.0000 0.21786  0.94593  0.64083  Biso   1.000  O 
  O2014    1.0000 0.04305  0.94593  0.65473  Biso   1.000  O 
  Ca771    1.0000 0.04178  0.99945  0.60986  Biso   1.000  Ca
  Ca772    1.0000 0.20844  0.93696  0.60987  Biso   1.000  Ca
  Ca773    1.0000 0.20844  0.99982  0.60987  Biso   1.000  Ca
  Ca774    1.0000 0.04178  0.93731  0.60986  Biso   1.000  Ca
  Ca775    1.0000 0.09506  0.96838  0.62363  Biso   1.000  Ca
  P463     1.0000 0.12136  0.96838  0.65147  Biso   1.000  P 
  O2015    1.0000 0.23484  0.96838  0.61269  Biso   1.000  O 
  O2016    1.0000 0.14463  0.96838  0.65400  Biso   1.000  O 
  Ca776    1.0000 0.24929  0.96838  0.63765  Biso   1.000  Ca
  P464     1.0000 0.20404  0.96838  0.64084  Biso   1.000  P 
  O2017    1.0000 0.19200  0.96838  0.62563  Biso   1.000  O 
  O2018    1.0000 0.18949  0.96838  0.65471  Biso   1.000  O 
  Ca777    1.0000 0.15599  0.96838  0.62255  Biso   1.000  Ca
  P465     1.0000 0.04995  0.96838  0.64573  Biso   1.000  P 
  O2019    1.0000 0.07350  0.96838  0.64551  Biso   1.000  O 
  O2020    1.0000 0.04122  0.96838  0.62933  Biso   1.000  O 
  Ca778    1.0000 0.03018  0.90589  0.65033  Biso   1.000  Ca
  P466     1.0000 0.00386  0.90589  0.62248  Biso   1.000  P 
  O2021    1.0000 0.14039  0.90589  0.66127  Biso   1.000  O 
  O2022    1.0000 0.23060  0.90589  0.61996  Biso   1.000  O 
  Ca779    1.0000 0.12593  0.90589  0.63630  Biso   1.000  Ca
  P467     1.0000 0.17119  0.90589  0.63312  Biso   1.000  P 
  O2023    1.0000 0.18322  0.90589  0.64833  Biso   1.000  O 
  O2024    1.0000 0.18573  0.90589  0.61924  Biso   1.000  O 
  Ca780    1.0000 0.21922  0.90589  0.65141  Biso   1.000  Ca
  P468     1.0000 0.07528  0.90589  0.62822  Biso   1.000  P 
  O2025    1.0000 0.05172  0.90589  0.62845  Biso   1.000  O 
  O2026    1.0000 0.08400  0.90589  0.64462  Biso   1.000  O 
  O2027    1.0000 0.12511  0.89938  0.60987  Biso   1.000  O 
  O2028    1.0000 0.12511  0.96187  0.60987  Biso   1.000  O 
  H155     1.0000 0.12511  0.87920  0.60987  Biso   1.000  H 
  H156     1.0000 0.12522  0.94169  0.60982  Biso   1.000  H 
  O2029    1.0000 0.23942  0.99085  0.69670  Biso   1.000  O 
  O2030    1.0000 0.09286  0.99085  0.69504  Biso   1.000  O 
  O2031    1.0000 0.16805  0.99085  0.70895  Biso   1.000  O 
  O2032    1.0000 0.13580  0.92835  0.68569  Biso   1.000  O 
  O2033    1.0000 0.03236  0.92835  0.68734  Biso   1.000  O 
  O2034    1.0000 0.20717  0.92835  0.67344  Biso   1.000  O 
  O2035    1.0000 0.13580  0.88342  0.68569  Biso   1.000  O 
  O2036    1.0000 0.03236  0.88342  0.68734  Biso   1.000  O 
  O2037    1.0000 0.20717  0.88342  0.67344  Biso   1.000  O 
  O2038    1.0000 0.23942  0.94593  0.69670  Biso   1.000  O 
  O2039    1.0000 0.09286  0.94593  0.69504  Biso   1.000  O 
  O2040    1.0000 0.16805  0.94593  0.70895  Biso   1.000  O 
  Ca781    1.0000 0.16678  0.99945  0.66408  Biso   1.000  Ca
  Ca782    1.0000 0.08344  0.93696  0.66409  Biso   1.000  Ca
  Ca783    1.0000 0.08344  0.99982  0.66409  Biso   1.000  Ca
  Ca784    1.0000 0.16678  0.93731  0.66408  Biso   1.000  Ca
  Ca785    1.0000 0.22006  0.96838  0.67784  Biso   1.000  Ca
  P469     1.0000 0.24636  0.96838  0.70569  Biso   1.000  P 
  O2041    1.0000 0.10984  0.96838  0.66691  Biso   1.000  O 
  O2042    1.0000 0.01963  0.96838  0.70822  Biso   1.000  O 
  Ca786    1.0000 0.12429  0.96838  0.69187  Biso   1.000  Ca
  P470     1.0000 0.07904  0.96838  0.69506  Biso   1.000  P 
  O2043    1.0000 0.06700  0.96838  0.67985  Biso   1.000  O 
  O2044    1.0000 0.06449  0.96838  0.70893  Biso   1.000  O 
  Ca787    1.0000 0.03099  0.96838  0.67677  Biso   1.000  Ca
  P471     1.0000 0.17495  0.96838  0.69995  Biso   1.000  P 
  O2045    1.0000 0.19850  0.96838  0.69973  Biso   1.000  O 
  O2046    1.0000 0.16622  0.96838  0.68355  Biso   1.000  O 
  Ca788    1.0000 0.15518  0.90589  0.70455  Biso   1.000  Ca
  P472     1.0000 0.12886  0.90589  0.67670  Biso   1.000  P 
  O2047    1.0000 0.01539  0.90589  0.71548  Biso   1.000  O 
  O2048    1.0000 0.10560  0.90589  0.67418  Biso   1.000  O 
  Ca789    1.0000 0.00093  0.90589  0.69052  Biso   1.000  Ca
  P473     1.0000 0.04619  0.90589  0.68733  Biso   1.000  P 
  O2049    1.0000 0.05822  0.90589  0.70255  Biso   1.000  O 
  O2050    1.0000 0.06073  0.90589  0.67346  Biso   1.000  O 
  Ca790    1.0000 0.09422  0.90589  0.70563  Biso   1.000  Ca
  P474     1.0000 0.20028  0.90589  0.68244  Biso   1.000  P 
  O2051    1.0000 0.17672  0.90589  0.68266  Biso   1.000  O 
  O2052    1.0000 0.20900  0.90589  0.69884  Biso   1.000  O 
  O2053    1.0000 0.00011  0.89938  0.66409  Biso   1.000  O 
  O2054    1.0000 0.00011  0.96187  0.66409  Biso   1.000  O 
  H157     1.0000 0.00011  0.87920  0.66409  Biso   1.000  H 
  H158     1.0000 0.00022  0.94169  0.66404  Biso   1.000  H 
  O2055    1.0000 0.11442  0.99085  0.75091  Biso   1.000  O 
  O2056    1.0000 0.21786  0.99085  0.74926  Biso   1.000  O 
  O2057    1.0000 0.04305  0.99085  0.76317  Biso   1.000  O 
  O2058    1.0000 0.01080  0.92835  0.73991  Biso   1.000  O 
  O2059    1.0000 0.15736  0.92835  0.74156  Biso   1.000  O 
  O2060    1.0000 0.08217  0.92835  0.72766  Biso   1.000  O 
  O2061    1.0000 0.01080  0.88342  0.73991  Biso   1.000  O 
  O2062    1.0000 0.15736  0.88342  0.74156  Biso   1.000  O 
  O2063    1.0000 0.08217  0.88342  0.72766  Biso   1.000  O 
  O2064    1.0000 0.11442  0.94593  0.75091  Biso   1.000  O 
  O2065    1.0000 0.21786  0.94593  0.74926  Biso   1.000  O 
  O2066    1.0000 0.04305  0.94593  0.76317  Biso   1.000  O 
  Ca791    1.0000 0.04178  0.99945  0.71830  Biso   1.000  Ca
  Ca792    1.0000 0.20844  0.93696  0.71831  Biso   1.000  Ca
  Ca793    1.0000 0.20844  0.99982  0.71831  Biso   1.000  Ca
  Ca794    1.0000 0.04178  0.93731  0.71830  Biso   1.000  Ca
  Ca795    1.0000 0.09506  0.96838  0.73206  Biso   1.000  Ca
  P475     1.0000 0.12136  0.96838  0.75990  Biso   1.000  P 
  O2067    1.0000 0.23484  0.96838  0.72113  Biso   1.000  O 
  O2068    1.0000 0.14463  0.96838  0.76243  Biso   1.000  O 
  Ca796    1.0000 0.24929  0.96838  0.74609  Biso   1.000  Ca
  P476     1.0000 0.20404  0.96838  0.74928  Biso   1.000  P 
  O2069    1.0000 0.19200  0.96838  0.73407  Biso   1.000  O 
  O2070    1.0000 0.18949  0.96838  0.76315  Biso   1.000  O 
  Ca797    1.0000 0.15599  0.96838  0.73099  Biso   1.000  Ca
  P477     1.0000 0.04995  0.96838  0.75417  Biso   1.000  P 
  O2071    1.0000 0.07350  0.96838  0.75394  Biso   1.000  O 
  O2072    1.0000 0.04122  0.96838  0.73776  Biso   1.000  O 
  Ca798    1.0000 0.03018  0.90589  0.75877  Biso   1.000  Ca
  P478     1.0000 0.00386  0.90589  0.73092  Biso   1.000  P 
  O2073    1.0000 0.14039  0.90589  0.76970  Biso   1.000  O 
  O2074    1.0000 0.23060  0.90589  0.72840  Biso   1.000  O 
  Ca799    1.0000 0.12593  0.90589  0.74474  Biso   1.000  Ca
  P479     1.0000 0.17119  0.90589  0.74155  Biso   1.000  P 
  O2075    1.0000 0.18322  0.90589  0.75677  Biso   1.000  O 
  O2076    1.0000 0.18573  0.90589  0.72767  Biso   1.000  O 
  Ca800    1.0000 0.21922  0.90589  0.75984  Biso   1.000  Ca
  P480     1.0000 0.07528  0.90589  0.73666  Biso   1.000  P 
  O2077    1.0000 0.05172  0.90589  0.73688  Biso   1.000  O 
  O2078    1.0000 0.08400  0.90589  0.75306  Biso   1.000  O 
  O2079    1.0000 0.12511  0.89938  0.71831  Biso   1.000  O 
  O2080    1.0000 0.12511  0.96187  0.71831  Biso   1.000  O 
  H159     1.0000 0.12511  0.87920  0.71831  Biso   1.000  H 
  H160     1.0000 0.12522  0.94169  0.71826  Biso   1.000  H 
  O2081    1.0000 0.48942  0.11585  0.26295  Biso   1.000  O 
  O2082    1.0000 0.34286  0.11585  0.26130  Biso   1.000  O 
  O2083    1.0000 0.41805  0.11585  0.27520  Biso   1.000  O 
  O2084    1.0000 0.38580  0.05335  0.25195  Biso   1.000  O 
  O2085    1.0000 0.28236  0.05335  0.25360  Biso   1.000  O 
  O2086    1.0000 0.45717  0.05335  0.23970  Biso   1.000  O 
  O2087    1.0000 0.38580  0.00842  0.25195  Biso   1.000  O 
  O2088    1.0000 0.28236  0.00842  0.25360  Biso   1.000  O 
  O2089    1.0000 0.45717  0.00842  0.23970  Biso   1.000  O 
  O2090    1.0000 0.48942  0.07093  0.26295  Biso   1.000  O 
  O2091    1.0000 0.34286  0.07093  0.26130  Biso   1.000  O 
  O2092    1.0000 0.41805  0.07093  0.27520  Biso   1.000  O 
  Ca801    1.0000 0.41678  0.12445  0.23034  Biso   1.000  Ca
  Ca802    1.0000 0.33344  0.06196  0.23035  Biso   1.000  Ca
  Ca803    1.0000 0.33344  0.12482  0.23035  Biso   1.000  Ca
  Ca804    1.0000 0.41678  0.06231  0.23034  Biso   1.000  Ca
  Ca805    1.0000 0.47006  0.09338  0.24410  Biso   1.000  Ca
  P481     1.0000 0.49636  0.09338  0.27194  Biso   1.000  P 
  O2093    1.0000 0.35984  0.09338  0.23317  Biso   1.000  O 
  O2094    1.0000 0.26963  0.09338  0.27447  Biso   1.000  O 
  Ca806    1.0000 0.37429  0.09338  0.25813  Biso   1.000  Ca
  P482     1.0000 0.32904  0.09338  0.26132  Biso   1.000  P 
  O2095    1.0000 0.31700  0.09338  0.24611  Biso   1.000  O 
  O2096    1.0000 0.31449  0.09338  0.27519  Biso   1.000  O 
  Ca807    1.0000 0.28099  0.09338  0.24303  Biso   1.000  Ca
  P483     1.0000 0.42495  0.09338  0.26620  Biso   1.000  P 
  O2097    1.0000 0.44850  0.09338  0.26598  Biso   1.000  O 
  O2098    1.0000 0.41622  0.09338  0.24980  Biso   1.000  O 
  Ca808    1.0000 0.40518  0.03089  0.27081  Biso   1.000  Ca
  P484     1.0000 0.37886  0.03089  0.24296  Biso   1.000  P 
  O2099    1.0000 0.26539  0.03089  0.28174  Biso   1.000  O 
  O2100    1.0000 0.35560  0.03089  0.24043  Biso   1.000  O 
  Ca809    1.0000 0.25093  0.03089  0.25677  Biso   1.000  Ca
  P485     1.0000 0.29619  0.03089  0.25359  Biso   1.000  P 
  O2101    1.0000 0.30822  0.03089  0.26880  Biso   1.000  O 
  O2102    1.0000 0.31073  0.03089  0.23971  Biso   1.000  O 
  Ca810    1.0000 0.34422  0.03089  0.27188  Biso   1.000  Ca
  P486     1.0000 0.45028  0.03089  0.24870  Biso   1.000  P 
  O2103    1.0000 0.42672  0.03089  0.24892  Biso   1.000  O 
  O2104    1.0000 0.45900  0.03089  0.26510  Biso   1.000  O 
  O2105    1.0000 0.25011  0.02438  0.23034  Biso   1.000  O 
  O2106    1.0000 0.25011  0.08687  0.23034  Biso   1.000  O 
  H161     1.0000 0.25011  0.00420  0.23034  Biso   1.000  H 
  H162     1.0000 0.25022  0.06669  0.23030  Biso   1.000  H 
  O2107    1.0000 0.36442  0.11585  0.31717  Biso   1.000  O 
  O2108    1.0000 0.46786  0.11585  0.31552  Biso   1.000  O 
  O2109    1.0000 0.29305  0.11585  0.32942  Biso   1.000  O 
  O2110    1.0000 0.26080  0.05335  0.30617  Biso   1.000  O 
  O2111    1.0000 0.40736  0.05335  0.30782  Biso   1.000  O 
  O2112    1.0000 0.33217  0.05335  0.29391  Biso   1.000  O 
  O2113    1.0000 0.26080  0.00842  0.30617  Biso   1.000  O 
  O2114    1.0000 0.40736  0.00842  0.30782  Biso   1.000  O 
  O2115    1.0000 0.33217  0.00842  0.29391  Biso   1.000  O 
  O2116    1.0000 0.36442  0.07093  0.31717  Biso   1.000  O 
  O2117    1.0000 0.46786  0.07093  0.31552  Biso   1.000  O 
  O2118    1.0000 0.29305  0.07093  0.32942  Biso   1.000  O 
  Ca811    1.0000 0.29178  0.12445  0.28456  Biso   1.000  Ca
  Ca812    1.0000 0.45844  0.06196  0.28456  Biso   1.000  Ca
  Ca813    1.0000 0.45844  0.12482  0.28456  Biso   1.000  Ca
  Ca814    1.0000 0.29178  0.06231  0.28456  Biso   1.000  Ca
  Ca815    1.0000 0.34506  0.09338  0.29832  Biso   1.000  Ca
  P487     1.0000 0.37136  0.09338  0.32616  Biso   1.000  P 
  O2119    1.0000 0.48484  0.09338  0.28738  Biso   1.000  O 
  O2120    1.0000 0.39463  0.09338  0.32869  Biso   1.000  O 
  Ca816    1.0000 0.49929  0.09338  0.31234  Biso   1.000  Ca
  P488     1.0000 0.45404  0.09338  0.31554  Biso   1.000  P 
  O2121    1.0000 0.44200  0.09338  0.30033  Biso   1.000  O 
  O2122    1.0000 0.43949  0.09338  0.32941  Biso   1.000  O 
  Ca817    1.0000 0.40599  0.09338  0.29725  Biso   1.000  Ca
  P489     1.0000 0.29995  0.09338  0.32042  Biso   1.000  P 
  O2123    1.0000 0.32350  0.09338  0.32020  Biso   1.000  O 
  O2124    1.0000 0.29122  0.09338  0.30402  Biso   1.000  O 
  Ca818    1.0000 0.28018  0.03089  0.32502  Biso   1.000  Ca
  P490     1.0000 0.25386  0.03089  0.29718  Biso   1.000  P 
  O2125    1.0000 0.39039  0.03089  0.33596  Biso   1.000  O 
  O2126    1.0000 0.48060  0.03089  0.29465  Biso   1.000  O 
  Ca819    1.0000 0.37593  0.03089  0.31099  Biso   1.000  Ca
  P491     1.0000 0.42119  0.03089  0.30781  Biso   1.000  P 
  O2127    1.0000 0.43322  0.03089  0.32302  Biso   1.000  O 
  O2128    1.0000 0.43573  0.03089  0.29393  Biso   1.000  O 
  Ca820    1.0000 0.46922  0.03089  0.32610  Biso   1.000  Ca
  P492     1.0000 0.32528  0.03089  0.30291  Biso   1.000  P 
  O2129    1.0000 0.30172  0.03089  0.30314  Biso   1.000  O 
  O2130    1.0000 0.33400  0.03089  0.31932  Biso   1.000  O 
  O2131    1.0000 0.37511  0.02438  0.28456  Biso   1.000  O 
  O2132    1.0000 0.37511  0.08687  0.28456  Biso   1.000  O 
  H163     1.0000 0.37511  0.00420  0.28456  Biso   1.000  H 
  H164     1.0000 0.37522  0.06669  0.28452  Biso   1.000  H 
  O2133    1.0000 0.48942  0.11585  0.37139  Biso   1.000  O 
  O2134    1.0000 0.34286  0.11585  0.36974  Biso   1.000  O 
  O2135    1.0000 0.41805  0.11585  0.38364  Biso   1.000  O 
  O2136    1.0000 0.38580  0.05335  0.36038  Biso   1.000  O 
  O2137    1.0000 0.28236  0.05335  0.36204  Biso   1.000  O 
  O2138    1.0000 0.45717  0.05335  0.34813  Biso   1.000  O 
  O2139    1.0000 0.38580  0.00842  0.36038  Biso   1.000  O 
  O2140    1.0000 0.28236  0.00842  0.36204  Biso   1.000  O 
  O2141    1.0000 0.45717  0.00842  0.34813  Biso   1.000  O 
  O2142    1.0000 0.48942  0.07093  0.37139  Biso   1.000  O 
  O2143    1.0000 0.34286  0.07093  0.36974  Biso   1.000  O 
  O2144    1.0000 0.41805  0.07093  0.38364  Biso   1.000  O 
  Ca821    1.0000 0.41678  0.12445  0.33877  Biso   1.000  Ca
  Ca822    1.0000 0.33344  0.06196  0.33878  Biso   1.000  Ca
  Ca823    1.0000 0.33344  0.12482  0.33878  Biso   1.000  Ca
  Ca824    1.0000 0.41678  0.06231  0.33877  Biso   1.000  Ca
  Ca825    1.0000 0.47006  0.09338  0.35254  Biso   1.000  Ca
  P493     1.0000 0.49636  0.09338  0.38038  Biso   1.000  P 
  O2145    1.0000 0.35984  0.09338  0.34160  Biso   1.000  O 
  O2146    1.0000 0.26963  0.09338  0.38291  Biso   1.000  O 
  Ca826    1.0000 0.37429  0.09338  0.36656  Biso   1.000  Ca
  P494     1.0000 0.32904  0.09338  0.36975  Biso   1.000  P 
  O2147    1.0000 0.31700  0.09338  0.35454  Biso   1.000  O 
  O2148    1.0000 0.31449  0.09338  0.38362  Biso   1.000  O 
  Ca827    1.0000 0.28099  0.09338  0.35146  Biso   1.000  Ca
  P495     1.0000 0.42495  0.09338  0.37464  Biso   1.000  P 
  O2149    1.0000 0.44850  0.09338  0.37442  Biso   1.000  O 
  O2150    1.0000 0.41622  0.09338  0.35824  Biso   1.000  O 
  Ca828    1.0000 0.40518  0.03089  0.37924  Biso   1.000  Ca
  P496     1.0000 0.37886  0.03089  0.35140  Biso   1.000  P 
  O2151    1.0000 0.26539  0.03089  0.39018  Biso   1.000  O 
  O2152    1.0000 0.35560  0.03089  0.34887  Biso   1.000  O 
  Ca829    1.0000 0.25093  0.03089  0.36521  Biso   1.000  Ca
  P497     1.0000 0.29619  0.03089  0.36203  Biso   1.000  P 
  O2153    1.0000 0.30822  0.03089  0.37724  Biso   1.000  O 
  O2154    1.0000 0.31073  0.03089  0.34815  Biso   1.000  O 
  Ca830    1.0000 0.34422  0.03089  0.38032  Biso   1.000  Ca
  P498     1.0000 0.45028  0.03089  0.35713  Biso   1.000  P 
  O2155    1.0000 0.42672  0.03089  0.35736  Biso   1.000  O 
  O2156    1.0000 0.45900  0.03089  0.37353  Biso   1.000  O 
  O2157    1.0000 0.25011  0.02438  0.33878  Biso   1.000  O 
  O2158    1.0000 0.25011  0.08687  0.33878  Biso   1.000  O 
  H165     1.0000 0.25011  0.00420  0.33878  Biso   1.000  H 
  H166     1.0000 0.25022  0.06669  0.33873  Biso   1.000  H 
  O2159    1.0000 0.36442  0.11585  0.42561  Biso   1.000  O 
  O2160    1.0000 0.46786  0.11585  0.42395  Biso   1.000  O 
  O2161    1.0000 0.29305  0.11585  0.43786  Biso   1.000  O 
  O2162    1.0000 0.26080  0.05335  0.41460  Biso   1.000  O 
  O2163    1.0000 0.40736  0.05335  0.41625  Biso   1.000  O 
  O2164    1.0000 0.33217  0.05335  0.40235  Biso   1.000  O 
  O2165    1.0000 0.26080  0.00842  0.41460  Biso   1.000  O 
  O2166    1.0000 0.40736  0.00842  0.41625  Biso   1.000  O 
  O2167    1.0000 0.33217  0.00842  0.40235  Biso   1.000  O 
  O2168    1.0000 0.36442  0.07093  0.42561  Biso   1.000  O 
  O2169    1.0000 0.46786  0.07093  0.42395  Biso   1.000  O 
  O2170    1.0000 0.29305  0.07093  0.43786  Biso   1.000  O 
  Ca831    1.0000 0.29178  0.12445  0.39299  Biso   1.000  Ca
  Ca832    1.0000 0.45844  0.06196  0.39300  Biso   1.000  Ca
  Ca833    1.0000 0.45844  0.12482  0.39300  Biso   1.000  Ca
  Ca834    1.0000 0.29178  0.06231  0.39299  Biso   1.000  Ca
  Ca835    1.0000 0.34506  0.09338  0.40675  Biso   1.000  Ca
  P499     1.0000 0.37136  0.09338  0.43460  Biso   1.000  P 
  O2171    1.0000 0.48484  0.09338  0.39582  Biso   1.000  O 
  O2172    1.0000 0.39463  0.09338  0.43713  Biso   1.000  O 
  Ca836    1.0000 0.49929  0.09338  0.42078  Biso   1.000  Ca
  P500     1.0000 0.45404  0.09338  0.42397  Biso   1.000  P 
  O2173    1.0000 0.44200  0.09338  0.40876  Biso   1.000  O 
  O2174    1.0000 0.43949  0.09338  0.43784  Biso   1.000  O 
  Ca837    1.0000 0.40599  0.09338  0.40568  Biso   1.000  Ca
  P501     1.0000 0.29995  0.09338  0.42886  Biso   1.000  P 
  O2175    1.0000 0.32350  0.09338  0.42864  Biso   1.000  O 
  O2176    1.0000 0.29122  0.09338  0.41246  Biso   1.000  O 
  Ca838    1.0000 0.28018  0.03089  0.43346  Biso   1.000  Ca
  P502     1.0000 0.25386  0.03089  0.40561  Biso   1.000  P 
  O2177    1.0000 0.39039  0.03089  0.44439  Biso   1.000  O 
  O2178    1.0000 0.48060  0.03089  0.40309  Biso   1.000  O 
  Ca839    1.0000 0.37593  0.03089  0.41943  Biso   1.000  Ca
  P503     1.0000 0.42119  0.03089  0.41624  Biso   1.000  P 
  O2179    1.0000 0.43322  0.03089  0.43146  Biso   1.000  O 
  O2180    1.0000 0.43573  0.03089  0.40237  Biso   1.000  O 
  Ca840    1.0000 0.46922  0.03089  0.43454  Biso   1.000  Ca
  P504     1.0000 0.32528  0.03089  0.41135  Biso   1.000  P 
  O2181    1.0000 0.30172  0.03089  0.41157  Biso   1.000  O 
  O2182    1.0000 0.33400  0.03089  0.42775  Biso   1.000  O 
  O2183    1.0000 0.37511  0.02438  0.39300  Biso   1.000  O 
  O2184    1.0000 0.37511  0.08687  0.39300  Biso   1.000  O 
  H167     1.0000 0.37511  0.00420  0.39300  Biso   1.000  H 
  H168     1.0000 0.37522  0.06669  0.39295  Biso   1.000  H 
  O2185    1.0000 0.48942  0.11585  0.47982  Biso   1.000  O 
  O2186    1.0000 0.34286  0.11585  0.47817  Biso   1.000  O 
  O2187    1.0000 0.41805  0.11585  0.49208  Biso   1.000  O 
  O2188    1.0000 0.38580  0.05335  0.46882  Biso   1.000  O 
  O2189    1.0000 0.28236  0.05335  0.47047  Biso   1.000  O 
  O2190    1.0000 0.45717  0.05335  0.45657  Biso   1.000  O 
  O2191    1.0000 0.38580  0.00842  0.46882  Biso   1.000  O 
  O2192    1.0000 0.28236  0.00842  0.47047  Biso   1.000  O 
  O2193    1.0000 0.45717  0.00842  0.45657  Biso   1.000  O 
  O2194    1.0000 0.48942  0.07093  0.47982  Biso   1.000  O 
  O2195    1.0000 0.34286  0.07093  0.47817  Biso   1.000  O 
  O2196    1.0000 0.41805  0.07093  0.49208  Biso   1.000  O 
  Ca841    1.0000 0.41678  0.12445  0.44721  Biso   1.000  Ca
  Ca842    1.0000 0.33344  0.06196  0.44722  Biso   1.000  Ca
  Ca843    1.0000 0.33344  0.12482  0.44722  Biso   1.000  Ca
  Ca844    1.0000 0.41678  0.06231  0.44721  Biso   1.000  Ca
  Ca845    1.0000 0.47006  0.09338  0.46097  Biso   1.000  Ca
  P505     1.0000 0.49636  0.09338  0.48881  Biso   1.000  P 
  O2197    1.0000 0.35984  0.09338  0.45004  Biso   1.000  O 
  O2198    1.0000 0.26963  0.09338  0.49134  Biso   1.000  O 
  Ca846    1.0000 0.37429  0.09338  0.47500  Biso   1.000  Ca
  P506     1.0000 0.32904  0.09338  0.47819  Biso   1.000  P 
  O2199    1.0000 0.31700  0.09338  0.46298  Biso   1.000  O 
  O2200    1.0000 0.31449  0.09338  0.49206  Biso   1.000  O 
  Ca847    1.0000 0.28099  0.09338  0.45990  Biso   1.000  Ca
  P507     1.0000 0.42495  0.09338  0.48308  Biso   1.000  P 
  O2201    1.0000 0.44850  0.09338  0.48285  Biso   1.000  O 
  O2202    1.0000 0.41622  0.09338  0.46667  Biso   1.000  O 
  Ca848    1.0000 0.40518  0.03089  0.48768  Biso   1.000  Ca
  P508     1.0000 0.37886  0.03089  0.45983  Biso   1.000  P 
  O2203    1.0000 0.26539  0.03089  0.49861  Biso   1.000  O 
  O2204    1.0000 0.35560  0.03089  0.45731  Biso   1.000  O 
  Ca849    1.0000 0.25093  0.03089  0.47365  Biso   1.000  Ca
  P509     1.0000 0.29619  0.03089  0.47046  Biso   1.000  P 
  O2205    1.0000 0.30822  0.03089  0.48568  Biso   1.000  O 
  O2206    1.0000 0.31073  0.03089  0.45658  Biso   1.000  O 
  Ca850    1.0000 0.34422  0.03089  0.48875  Biso   1.000  Ca
  P510     1.0000 0.45028  0.03089  0.46557  Biso   1.000  P 
  O2207    1.0000 0.42672  0.03089  0.46579  Biso   1.000  O 
  O2208    1.0000 0.45900  0.03089  0.48197  Biso   1.000  O 
  O2209    1.0000 0.25011  0.02438  0.44722  Biso   1.000  O 
  O2210    1.0000 0.25011  0.08687  0.44722  Biso   1.000  O 
  H169     1.0000 0.25011  0.00420  0.44722  Biso   1.000  H 
  H170     1.0000 0.25022  0.06669  0.44717  Biso   1.000  H 
  O2211    1.0000 0.36442  0.11585  0.53404  Biso   1.000  O 
  O2212    1.0000 0.46786  0.11585  0.53239  Biso   1.000  O 
  O2213    1.0000 0.29305  0.11585  0.54629  Biso   1.000  O 
  O2214    1.0000 0.26080  0.05335  0.52304  Biso   1.000  O 
  O2215    1.0000 0.40736  0.05335  0.52469  Biso   1.000  O 
  O2216    1.0000 0.33217  0.05335  0.51079  Biso   1.000  O 
  O2217    1.0000 0.26080  0.00842  0.52304  Biso   1.000  O 
  O2218    1.0000 0.40736  0.00842  0.52469  Biso   1.000  O 
  O2219    1.0000 0.33217  0.00842  0.51079  Biso   1.000  O 
  O2220    1.0000 0.36442  0.07093  0.53404  Biso   1.000  O 
  O2221    1.0000 0.46786  0.07093  0.53239  Biso   1.000  O 
  O2222    1.0000 0.29305  0.07093  0.54629  Biso   1.000  O 
  Ca851    1.0000 0.29178  0.12445  0.50143  Biso   1.000  Ca
  Ca852    1.0000 0.45844  0.06196  0.50144  Biso   1.000  Ca
  Ca853    1.0000 0.45844  0.12482  0.50144  Biso   1.000  Ca
  Ca854    1.0000 0.29178  0.06231  0.50143  Biso   1.000  Ca
  Ca855    1.0000 0.34506  0.09338  0.51519  Biso   1.000  Ca
  P511     1.0000 0.37136  0.09338  0.54303  Biso   1.000  P 
  O2223    1.0000 0.48484  0.09338  0.50426  Biso   1.000  O 
  O2224    1.0000 0.39463  0.09338  0.54556  Biso   1.000  O 
  Ca856    1.0000 0.49929  0.09338  0.52922  Biso   1.000  Ca
  P512     1.0000 0.45404  0.09338  0.53241  Biso   1.000  P 
  O2225    1.0000 0.44200  0.09338  0.51720  Biso   1.000  O 
  O2226    1.0000 0.43949  0.09338  0.54628  Biso   1.000  O 
  Ca857    1.0000 0.40599  0.09338  0.51412  Biso   1.000  Ca
  P513     1.0000 0.29995  0.09338  0.53729  Biso   1.000  P 
  O2227    1.0000 0.32350  0.09338  0.53707  Biso   1.000  O 
  O2228    1.0000 0.29122  0.09338  0.52089  Biso   1.000  O 
  Ca858    1.0000 0.28018  0.03089  0.54190  Biso   1.000  Ca
  P514     1.0000 0.25386  0.03089  0.51405  Biso   1.000  P 
  O2229    1.0000 0.39039  0.03089  0.55283  Biso   1.000  O 
  O2230    1.0000 0.48060  0.03089  0.51152  Biso   1.000  O 
  Ca859    1.0000 0.37593  0.03089  0.52786  Biso   1.000  Ca
  P515     1.0000 0.42119  0.03089  0.52468  Biso   1.000  P 
  O2231    1.0000 0.43322  0.03089  0.53989  Biso   1.000  O 
  O2232    1.0000 0.43573  0.03089  0.51080  Biso   1.000  O 
  Ca860    1.0000 0.46922  0.03089  0.54297  Biso   1.000  Ca
  P516     1.0000 0.32528  0.03089  0.51979  Biso   1.000  P 
  O2233    1.0000 0.30172  0.03089  0.52001  Biso   1.000  O 
  O2234    1.0000 0.33400  0.03089  0.53619  Biso   1.000  O 
  O2235    1.0000 0.37511  0.02438  0.50143  Biso   1.000  O 
  O2236    1.0000 0.37511  0.08687  0.50143  Biso   1.000  O 
  H171     1.0000 0.37511  0.00420  0.50143  Biso   1.000  H 
  H172     1.0000 0.37522  0.06669  0.50139  Biso   1.000  H 
  O2237    1.0000 0.48942  0.11585  0.58826  Biso   1.000  O 
  O2238    1.0000 0.34286  0.11585  0.58661  Biso   1.000  O 
  O2239    1.0000 0.41805  0.11585  0.60051  Biso   1.000  O 
  O2240    1.0000 0.38580  0.05335  0.57726  Biso   1.000  O 
  O2241    1.0000 0.28236  0.05335  0.57891  Biso   1.000  O 
  O2242    1.0000 0.45717  0.05335  0.56500  Biso   1.000  O 
  O2243    1.0000 0.38580  0.00842  0.57726  Biso   1.000  O 
  O2244    1.0000 0.28236  0.00842  0.57891  Biso   1.000  O 
  O2245    1.0000 0.45717  0.00842  0.56500  Biso   1.000  O 
  O2246    1.0000 0.48942  0.07093  0.58826  Biso   1.000  O 
  O2247    1.0000 0.34286  0.07093  0.58661  Biso   1.000  O 
  O2248    1.0000 0.41805  0.07093  0.60051  Biso   1.000  O 
  Ca861    1.0000 0.41678  0.12445  0.55565  Biso   1.000  Ca
  Ca862    1.0000 0.33344  0.06196  0.55565  Biso   1.000  Ca
  Ca863    1.0000 0.33344  0.12482  0.55565  Biso   1.000  Ca
  Ca864    1.0000 0.41678  0.06231  0.55565  Biso   1.000  Ca
  Ca865    1.0000 0.47006  0.09338  0.56941  Biso   1.000  Ca
  P517     1.0000 0.49636  0.09338  0.59725  Biso   1.000  P 
  O2249    1.0000 0.35984  0.09338  0.55847  Biso   1.000  O 
  O2250    1.0000 0.26963  0.09338  0.59978  Biso   1.000  O 
  Ca866    1.0000 0.37429  0.09338  0.58343  Biso   1.000  Ca
  P518     1.0000 0.32904  0.09338  0.58662  Biso   1.000  P 
  O2251    1.0000 0.31700  0.09338  0.57141  Biso   1.000  O 
  O2252    1.0000 0.31449  0.09338  0.60050  Biso   1.000  O 
  Ca867    1.0000 0.28099  0.09338  0.56834  Biso   1.000  Ca
  P519     1.0000 0.42495  0.09338  0.59151  Biso   1.000  P 
  O2253    1.0000 0.44850  0.09338  0.59129  Biso   1.000  O 
  O2254    1.0000 0.41622  0.09338  0.57511  Biso   1.000  O 
  Ca868    1.0000 0.40518  0.03089  0.59611  Biso   1.000  Ca
  P520     1.0000 0.37886  0.03089  0.56827  Biso   1.000  P 
  O2255    1.0000 0.26539  0.03089  0.60705  Biso   1.000  O 
  O2256    1.0000 0.35560  0.03089  0.56574  Biso   1.000  O 
  Ca869    1.0000 0.25093  0.03089  0.58208  Biso   1.000  Ca
  P521     1.0000 0.29619  0.03089  0.57890  Biso   1.000  P 
  O2257    1.0000 0.30822  0.03089  0.59411  Biso   1.000  O 
  O2258    1.0000 0.31073  0.03089  0.56502  Biso   1.000  O 
  Ca870    1.0000 0.34422  0.03089  0.59719  Biso   1.000  Ca
  P522     1.0000 0.45028  0.03089  0.57400  Biso   1.000  P 
  O2259    1.0000 0.42672  0.03089  0.57423  Biso   1.000  O 
  O2260    1.0000 0.45900  0.03089  0.59041  Biso   1.000  O 
  O2261    1.0000 0.25011  0.02438  0.55565  Biso   1.000  O 
  O2262    1.0000 0.25011  0.08687  0.55565  Biso   1.000  O 
  H173     1.0000 0.25011  0.00420  0.55565  Biso   1.000  H 
  H174     1.0000 0.25022  0.06669  0.55561  Biso   1.000  H 
  O2263    1.0000 0.36442  0.11585  0.64248  Biso   1.000  O 
  O2264    1.0000 0.46786  0.11585  0.64083  Biso   1.000  O 
  O2265    1.0000 0.29305  0.11585  0.65473  Biso   1.000  O 
  O2266    1.0000 0.26080  0.05335  0.63147  Biso   1.000  O 
  O2267    1.0000 0.40736  0.05335  0.63313  Biso   1.000  O 
  O2268    1.0000 0.33217  0.05335  0.61922  Biso   1.000  O 
  O2269    1.0000 0.26080  0.00842  0.63147  Biso   1.000  O 
  O2270    1.0000 0.40736  0.00842  0.63313  Biso   1.000  O 
  O2271    1.0000 0.33217  0.00842  0.61922  Biso   1.000  O 
  O2272    1.0000 0.36442  0.07093  0.64248  Biso   1.000  O 
  O2273    1.0000 0.46786  0.07093  0.64083  Biso   1.000  O 
  O2274    1.0000 0.29305  0.07093  0.65473  Biso   1.000  O 
  Ca871    1.0000 0.29178  0.12445  0.60986  Biso   1.000  Ca
  Ca872    1.0000 0.45844  0.06196  0.60987  Biso   1.000  Ca
  Ca873    1.0000 0.45844  0.12482  0.60987  Biso   1.000  Ca
  Ca874    1.0000 0.29178  0.06231  0.60986  Biso   1.000  Ca
  Ca875    1.0000 0.34506  0.09338  0.62363  Biso   1.000  Ca
  P523     1.0000 0.37136  0.09338  0.65147  Biso   1.000  P 
  O2275    1.0000 0.48484  0.09338  0.61269  Biso   1.000  O 
  O2276    1.0000 0.39463  0.09338  0.65400  Biso   1.000  O 
  Ca876    1.0000 0.49929  0.09338  0.63765  Biso   1.000  Ca
  P524     1.0000 0.45404  0.09338  0.64084  Biso   1.000  P 
  O2277    1.0000 0.44200  0.09338  0.62563  Biso   1.000  O 
  O2278    1.0000 0.43949  0.09338  0.65471  Biso   1.000  O 
  Ca877    1.0000 0.40599  0.09338  0.62255  Biso   1.000  Ca
  P525     1.0000 0.29995  0.09338  0.64573  Biso   1.000  P 
  O2279    1.0000 0.32350  0.09338  0.64551  Biso   1.000  O 
  O2280    1.0000 0.29122  0.09338  0.62933  Biso   1.000  O 
  Ca878    1.0000 0.28018  0.03089  0.65033  Biso   1.000  Ca
  P526     1.0000 0.25386  0.03089  0.62248  Biso   1.000  P 
  O2281    1.0000 0.39039  0.03089  0.66127  Biso   1.000  O 
  O2282    1.0000 0.48060  0.03089  0.61996  Biso   1.000  O 
  Ca879    1.0000 0.37593  0.03089  0.63630  Biso   1.000  Ca
  P527     1.0000 0.42119  0.03089  0.63312  Biso   1.000  P 
  O2283    1.0000 0.43322  0.03089  0.64833  Biso   1.000  O 
  O2284    1.0000 0.43573  0.03089  0.61924  Biso   1.000  O 
  Ca880    1.0000 0.46922  0.03089  0.65141  Biso   1.000  Ca
  P528     1.0000 0.32528  0.03089  0.62822  Biso   1.000  P 
  O2285    1.0000 0.30172  0.03089  0.62845  Biso   1.000  O 
  O2286    1.0000 0.33400  0.03089  0.64462  Biso   1.000  O 
  O2287    1.0000 0.37511  0.02438  0.60987  Biso   1.000  O 
  O2288    1.0000 0.37511  0.08687  0.60987  Biso   1.000  O 
  H175     1.0000 0.37511  0.00420  0.60987  Biso   1.000  H 
  H176     1.0000 0.37522  0.06669  0.60982  Biso   1.000  H 
  O2289    1.0000 0.48942  0.11585  0.69670  Biso   1.000  O 
  O2290    1.0000 0.34286  0.11585  0.69504  Biso   1.000  O 
  O2291    1.0000 0.41805  0.11585  0.70895  Biso   1.000  O 
  O2292    1.0000 0.38580  0.05335  0.68569  Biso   1.000  O 
  O2293    1.0000 0.28236  0.05335  0.68734  Biso   1.000  O 
  O2294    1.0000 0.45717  0.05335  0.67344  Biso   1.000  O 
  O2295    1.0000 0.38580  0.00842  0.68569  Biso   1.000  O 
  O2296    1.0000 0.28236  0.00842  0.68734  Biso   1.000  O 
  O2297    1.0000 0.45717  0.00842  0.67344  Biso   1.000  O 
  O2298    1.0000 0.48942  0.07093  0.69670  Biso   1.000  O 
  O2299    1.0000 0.34286  0.07093  0.69504  Biso   1.000  O 
  O2300    1.0000 0.41805  0.07093  0.70895  Biso   1.000  O 
  Ca881    1.0000 0.41678  0.12445  0.66408  Biso   1.000  Ca
  Ca882    1.0000 0.33344  0.06196  0.66409  Biso   1.000  Ca
  Ca883    1.0000 0.33344  0.12482  0.66409  Biso   1.000  Ca
  Ca884    1.0000 0.41678  0.06231  0.66408  Biso   1.000  Ca
  Ca885    1.0000 0.47006  0.09338  0.67784  Biso   1.000  Ca
  P529     1.0000 0.49636  0.09338  0.70569  Biso   1.000  P 
  O2301    1.0000 0.35984  0.09338  0.66691  Biso   1.000  O 
  O2302    1.0000 0.26963  0.09338  0.70822  Biso   1.000  O 
  Ca886    1.0000 0.37429  0.09338  0.69187  Biso   1.000  Ca
  P530     1.0000 0.32904  0.09338  0.69506  Biso   1.000  P 
  O2303    1.0000 0.31700  0.09338  0.67985  Biso   1.000  O 
  O2304    1.0000 0.31449  0.09338  0.70893  Biso   1.000  O 
  Ca887    1.0000 0.28099  0.09338  0.67677  Biso   1.000  Ca
  P531     1.0000 0.42495  0.09338  0.69995  Biso   1.000  P 
  O2305    1.0000 0.44850  0.09338  0.69973  Biso   1.000  O 
  O2306    1.0000 0.41622  0.09338  0.68355  Biso   1.000  O 
  Ca888    1.0000 0.40518  0.03089  0.70455  Biso   1.000  Ca
  P532     1.0000 0.37886  0.03089  0.67670  Biso   1.000  P 
  O2307    1.0000 0.26539  0.03089  0.71548  Biso   1.000  O 
  O2308    1.0000 0.35560  0.03089  0.67418  Biso   1.000  O 
  Ca889    1.0000 0.25093  0.03089  0.69052  Biso   1.000  Ca
  P533     1.0000 0.29619  0.03089  0.68733  Biso   1.000  P 
  O2309    1.0000 0.30822  0.03089  0.70255  Biso   1.000  O 
  O2310    1.0000 0.31073  0.03089  0.67346  Biso   1.000  O 
  Ca890    1.0000 0.34422  0.03089  0.70563  Biso   1.000  Ca
  P534     1.0000 0.45028  0.03089  0.68244  Biso   1.000  P 
  O2311    1.0000 0.42672  0.03089  0.68266  Biso   1.000  O 
  O2312    1.0000 0.45900  0.03089  0.69884  Biso   1.000  O 
  O2313    1.0000 0.25011  0.02438  0.66409  Biso   1.000  O 
  O2314    1.0000 0.25011  0.08687  0.66409  Biso   1.000  O 
  H177     1.0000 0.25011  0.00420  0.66409  Biso   1.000  H 
  H178     1.0000 0.25022  0.06669  0.66404  Biso   1.000  H 
  O2315    1.0000 0.36442  0.11585  0.75091  Biso   1.000  O 
  O2316    1.0000 0.46786  0.11585  0.74926  Biso   1.000  O 
  O2317    1.0000 0.29305  0.11585  0.76317  Biso   1.000  O 
  O2318    1.0000 0.26080  0.05335  0.73991  Biso   1.000  O 
  O2319    1.0000 0.40736  0.05335  0.74156  Biso   1.000  O 
  O2320    1.0000 0.33217  0.05335  0.72766  Biso   1.000  O 
  O2321    1.0000 0.26080  0.00842  0.73991  Biso   1.000  O 
  O2322    1.0000 0.40736  0.00842  0.74156  Biso   1.000  O 
  O2323    1.0000 0.33217  0.00842  0.72766  Biso   1.000  O 
  O2324    1.0000 0.36442  0.07093  0.75091  Biso   1.000  O 
  O2325    1.0000 0.46786  0.07093  0.74926  Biso   1.000  O 
  O2326    1.0000 0.29305  0.07093  0.76317  Biso   1.000  O 
  Ca891    1.0000 0.29178  0.12445  0.71830  Biso   1.000  Ca
  Ca892    1.0000 0.45844  0.06196  0.71831  Biso   1.000  Ca
  Ca893    1.0000 0.45844  0.12482  0.71831  Biso   1.000  Ca
  Ca894    1.0000 0.29178  0.06231  0.71830  Biso   1.000  Ca
  Ca895    1.0000 0.34506  0.09338  0.73206  Biso   1.000  Ca
  P535     1.0000 0.37136  0.09338  0.75990  Biso   1.000  P 
  O2327    1.0000 0.48484  0.09338  0.72113  Biso   1.000  O 
  O2328    1.0000 0.39463  0.09338  0.76243  Biso   1.000  O 
  Ca896    1.0000 0.49929  0.09338  0.74609  Biso   1.000  Ca
  P536     1.0000 0.45404  0.09338  0.74928  Biso   1.000  P 
  O2329    1.0000 0.44200  0.09338  0.73407  Biso   1.000  O 
  O2330    1.0000 0.43949  0.09338  0.76315  Biso   1.000  O 
  Ca897    1.0000 0.40599  0.09338  0.73099  Biso   1.000  Ca
  P537     1.0000 0.29995  0.09338  0.75417  Biso   1.000  P 
  O2331    1.0000 0.32350  0.09338  0.75394  Biso   1.000  O 
  O2332    1.0000 0.29122  0.09338  0.73776  Biso   1.000  O 
  Ca898    1.0000 0.28018  0.03089  0.75877  Biso   1.000  Ca
  P538     1.0000 0.25386  0.03089  0.73092  Biso   1.000  P 
  O2333    1.0000 0.39039  0.03089  0.76970  Biso   1.000  O 
  O2334    1.0000 0.48060  0.03089  0.72840  Biso   1.000  O 
  Ca899    1.0000 0.37593  0.03089  0.74474  Biso   1.000  Ca
  P539     1.0000 0.42119  0.03089  0.74155  Biso   1.000  P 
  O2335    1.0000 0.43322  0.03089  0.75677  Biso   1.000  O 
  O2336    1.0000 0.43573  0.03089  0.72767  Biso   1.000  O 
  Ca900    1.0000 0.46922  0.03089  0.75984  Biso   1.000  Ca
  P540     1.0000 0.32528  0.03089  0.73666  Biso   1.000  P 
  O2337    1.0000 0.30172  0.03089  0.73688  Biso   1.000  O 
  O2338    1.0000 0.33400  0.03089  0.75306  Biso   1.000  O 
  O2339    1.0000 0.37511  0.02438  0.71831  Biso   1.000  O 
  O2340    1.0000 0.37511  0.08687  0.71831  Biso   1.000  O 
  H179     1.0000 0.37511  0.00420  0.71831  Biso   1.000  H 
  H180     1.0000 0.37522  0.06669  0.71826  Biso   1.000  H 
  O2341    1.0000 0.48942  0.24085  0.26295  Biso   1.000  O 
  O2342    1.0000 0.34286  0.24085  0.26130  Biso   1.000  O 
  O2343    1.0000 0.41805  0.24085  0.27520  Biso   1.000  O 
  O2344    1.0000 0.38580  0.17835  0.25195  Biso   1.000  O 
  O2345    1.0000 0.28236  0.17835  0.25360  Biso   1.000  O 
  O2346    1.0000 0.45717  0.17835  0.23970  Biso   1.000  O 
  O2347    1.0000 0.38580  0.13342  0.25195  Biso   1.000  O 
  O2348    1.0000 0.28236  0.13342  0.25360  Biso   1.000  O 
  O2349    1.0000 0.45717  0.13342  0.23970  Biso   1.000  O 
  O2350    1.0000 0.48942  0.19593  0.26295  Biso   1.000  O 
  O2351    1.0000 0.34286  0.19593  0.26130  Biso   1.000  O 
  O2352    1.0000 0.41805  0.19593  0.27520  Biso   1.000  O 
  Ca901    1.0000 0.41678  0.24945  0.23034  Biso   1.000  Ca
  Ca902    1.0000 0.33344  0.18696  0.23035  Biso   1.000  Ca
  Ca903    1.0000 0.33344  0.24982  0.23035  Biso   1.000  Ca
  Ca904    1.0000 0.41678  0.18731  0.23034  Biso   1.000  Ca
  Ca905    1.0000 0.47006  0.21838  0.24410  Biso   1.000  Ca
  P541     1.0000 0.49636  0.21838  0.27194  Biso   1.000  P 
  O2353    1.0000 0.35984  0.21838  0.23317  Biso   1.000  O 
  O2354    1.0000 0.26963  0.21838  0.27447  Biso   1.000  O 
  Ca906    1.0000 0.37429  0.21838  0.25813  Biso   1.000  Ca
  P542     1.0000 0.32904  0.21838  0.26132  Biso   1.000  P 
  O2355    1.0000 0.31700  0.21838  0.24611  Biso   1.000  O 
  O2356    1.0000 0.31449  0.21838  0.27519  Biso   1.000  O 
  Ca907    1.0000 0.28099  0.21838  0.24303  Biso   1.000  Ca
  P543     1.0000 0.42495  0.21838  0.26620  Biso   1.000  P 
  O2357    1.0000 0.44850  0.21838  0.26598  Biso   1.000  O 
  O2358    1.0000 0.41622  0.21838  0.24980  Biso   1.000  O 
  Ca908    1.0000 0.40518  0.15589  0.27081  Biso   1.000  Ca
  P544     1.0000 0.37886  0.15589  0.24296  Biso   1.000  P 
  O2359    1.0000 0.26539  0.15589  0.28174  Biso   1.000  O 
  O2360    1.0000 0.35560  0.15589  0.24043  Biso   1.000  O 
  Ca909    1.0000 0.25093  0.15589  0.25677  Biso   1.000  Ca
  P545     1.0000 0.29619  0.15589  0.25359  Biso   1.000  P 
  O2361    1.0000 0.30822  0.15589  0.26880  Biso   1.000  O 
  O2362    1.0000 0.31073  0.15589  0.23971  Biso   1.000  O 
  Ca910    1.0000 0.34422  0.15589  0.27188  Biso   1.000  Ca
  P546     1.0000 0.45028  0.15589  0.24870  Biso   1.000  P 
  O2363    1.0000 0.42672  0.15589  0.24892  Biso   1.000  O 
  O2364    1.0000 0.45900  0.15589  0.26510  Biso   1.000  O 
  O2365    1.0000 0.25011  0.14938  0.23034  Biso   1.000  O 
  O2366    1.0000 0.25011  0.21187  0.23034  Biso   1.000  O 
  H181     1.0000 0.25011  0.12920  0.23034  Biso   1.000  H 
  H182     1.0000 0.25022  0.19169  0.23030  Biso   1.000  H 
  O2367    1.0000 0.36442  0.24085  0.31717  Biso   1.000  O 
  O2368    1.0000 0.46786  0.24085  0.31552  Biso   1.000  O 
  O2369    1.0000 0.29305  0.24085  0.32942  Biso   1.000  O 
  O2370    1.0000 0.26080  0.17835  0.30617  Biso   1.000  O 
  O2371    1.0000 0.40736  0.17835  0.30782  Biso   1.000  O 
  O2372    1.0000 0.33217  0.17835  0.29391  Biso   1.000  O 
  O2373    1.0000 0.26080  0.13342  0.30617  Biso   1.000  O 
  O2374    1.0000 0.40736  0.13342  0.30782  Biso   1.000  O 
  O2375    1.0000 0.33217  0.13342  0.29391  Biso   1.000  O 
  O2376    1.0000 0.36442  0.19593  0.31717  Biso   1.000  O 
  O2377    1.0000 0.46786  0.19593  0.31552  Biso   1.000  O 
  O2378    1.0000 0.29305  0.19593  0.32942  Biso   1.000  O 
  Ca911    1.0000 0.29178  0.24945  0.28456  Biso   1.000  Ca
  Ca912    1.0000 0.45844  0.18696  0.28456  Biso   1.000  Ca
  Ca913    1.0000 0.45844  0.24982  0.28456  Biso   1.000  Ca
  Ca914    1.0000 0.29178  0.18731  0.28456  Biso   1.000  Ca
  Ca915    1.0000 0.34506  0.21838  0.29832  Biso   1.000  Ca
  P547     1.0000 0.37136  0.21838  0.32616  Biso   1.000  P 
  O2379    1.0000 0.48484  0.21838  0.28738  Biso   1.000  O 
  O2380    1.0000 0.39463  0.21838  0.32869  Biso   1.000  O 
  Ca916    1.0000 0.49929  0.21838  0.31234  Biso   1.000  Ca
  P548     1.0000 0.45404  0.21838  0.31554  Biso   1.000  P 
  O2381    1.0000 0.44200  0.21838  0.30033  Biso   1.000  O 
  O2382    1.0000 0.43949  0.21838  0.32941  Biso   1.000  O 
  Ca917    1.0000 0.40599  0.21838  0.29725  Biso   1.000  Ca
  P549     1.0000 0.29995  0.21838  0.32042  Biso   1.000  P 
  O2383    1.0000 0.32350  0.21838  0.32020  Biso   1.000  O 
  O2384    1.0000 0.29122  0.21838  0.30402  Biso   1.000  O 
  Ca918    1.0000 0.28018  0.15589  0.32502  Biso   1.000  Ca
  P550     1.0000 0.25386  0.15589  0.29718  Biso   1.000  P 
  O2385    1.0000 0.39039  0.15589  0.33596  Biso   1.000  O 
  O2386    1.0000 0.48060  0.15589  0.29465  Biso   1.000  O 
  Ca919    1.0000 0.37593  0.15589  0.31099  Biso   1.000  Ca
  P551     1.0000 0.42119  0.15589  0.30781  Biso   1.000  P 
  O2387    1.0000 0.43322  0.15589  0.32302  Biso   1.000  O 
  O2388    1.0000 0.43573  0.15589  0.29393  Biso   1.000  O 
  Ca920    1.0000 0.46922  0.15589  0.32610  Biso   1.000  Ca
  P552     1.0000 0.32528  0.15589  0.30291  Biso   1.000  P 
  O2389    1.0000 0.30172  0.15589  0.30314  Biso   1.000  O 
  O2390    1.0000 0.33400  0.15589  0.31932  Biso   1.000  O 
  O2391    1.0000 0.37511  0.14938  0.28456  Biso   1.000  O 
  O2392    1.0000 0.37511  0.21187  0.28456  Biso   1.000  O 
  H183     1.0000 0.37511  0.12920  0.28456  Biso   1.000  H 
  H184     1.0000 0.37522  0.19169  0.28452  Biso   1.000  H 
  O2393    1.0000 0.48942  0.24085  0.37139  Biso   1.000  O 
  O2394    1.0000 0.34286  0.24085  0.36974  Biso   1.000  O 
  O2395    1.0000 0.41805  0.24085  0.38364  Biso   1.000  O 
  O2396    1.0000 0.38580  0.17835  0.36038  Biso   1.000  O 
  O2397    1.0000 0.28236  0.17835  0.36204  Biso   1.000  O 
  O2398    1.0000 0.45717  0.17835  0.34813  Biso   1.000  O 
  O2399    1.0000 0.38580  0.13342  0.36038  Biso   1.000  O 
  O2400    1.0000 0.28236  0.13342  0.36204  Biso   1.000  O 
  O2401    1.0000 0.45717  0.13342  0.34813  Biso   1.000  O 
  O2402    1.0000 0.48942  0.19593  0.37139  Biso   1.000  O 
  O2403    1.0000 0.34286  0.19593  0.36974  Biso   1.000  O 
  O2404    1.0000 0.41805  0.19593  0.38364  Biso   1.000  O 
  Ca921    1.0000 0.41678  0.24945  0.33877  Biso   1.000  Ca
  Ca922    1.0000 0.33344  0.18696  0.33878  Biso   1.000  Ca
  Ca923    1.0000 0.33344  0.24982  0.33878  Biso   1.000  Ca
  Ca924    1.0000 0.41678  0.18731  0.33877  Biso   1.000  Ca
  Ca925    1.0000 0.47006  0.21838  0.35254  Biso   1.000  Ca
  P553     1.0000 0.49636  0.21838  0.38038  Biso   1.000  P 
  O2405    1.0000 0.35984  0.21838  0.34160  Biso   1.000  O 
  O2406    1.0000 0.26963  0.21838  0.38291  Biso   1.000  O 
  Ca926    1.0000 0.37429  0.21838  0.36656  Biso   1.000  Ca
  P554     1.0000 0.32904  0.21838  0.36975  Biso   1.000  P 
  O2407    1.0000 0.31700  0.21838  0.35454  Biso   1.000  O 
  O2408    1.0000 0.31449  0.21838  0.38362  Biso   1.000  O 
  Ca927    1.0000 0.28099  0.21838  0.35146  Biso   1.000  Ca
  P555     1.0000 0.42495  0.21838  0.37464  Biso   1.000  P 
  O2409    1.0000 0.44850  0.21838  0.37442  Biso   1.000  O 
  O2410    1.0000 0.41622  0.21838  0.35824  Biso   1.000  O 
  Ca928    1.0000 0.40518  0.15589  0.37924  Biso   1.000  Ca
  P556     1.0000 0.37886  0.15589  0.35140  Biso   1.000  P 
  O2411    1.0000 0.26539  0.15589  0.39018  Biso   1.000  O 
  O2412    1.0000 0.35560  0.15589  0.34887  Biso   1.000  O 
  Ca929    1.0000 0.25093  0.15589  0.36521  Biso   1.000  Ca
  P557     1.0000 0.29619  0.15589  0.36203  Biso   1.000  P 
  O2413    1.0000 0.30822  0.15589  0.37724  Biso   1.000  O 
  O2414    1.0000 0.31073  0.15589  0.34815  Biso   1.000  O 
  Ca930    1.0000 0.34422  0.15589  0.38032  Biso   1.000  Ca
  P558     1.0000 0.45028  0.15589  0.35713  Biso   1.000  P 
  O2415    1.0000 0.42672  0.15589  0.35736  Biso   1.000  O 
  O2416    1.0000 0.45900  0.15589  0.37353  Biso   1.000  O 
  O2417    1.0000 0.25011  0.14938  0.33878  Biso   1.000  O 
  O2418    1.0000 0.25011  0.21187  0.33878  Biso   1.000  O 
  H185     1.0000 0.25011  0.12920  0.33878  Biso   1.000  H 
  H186     1.0000 0.25022  0.19169  0.33873  Biso   1.000  H 
  O2419    1.0000 0.36442  0.24085  0.42561  Biso   1.000  O 
  O2420    1.0000 0.46786  0.24085  0.42395  Biso   1.000  O 
  O2421    1.0000 0.29305  0.24085  0.43786  Biso   1.000  O 
  O2422    1.0000 0.26080  0.17835  0.41460  Biso   1.000  O 
  O2423    1.0000 0.40736  0.17835  0.41625  Biso   1.000  O 
  O2424    1.0000 0.33217  0.17835  0.40235  Biso   1.000  O 
  O2425    1.0000 0.26080  0.13342  0.41460  Biso   1.000  O 
  O2426    1.0000 0.40736  0.13342  0.41625  Biso   1.000  O 
  O2427    1.0000 0.33217  0.13342  0.40235  Biso   1.000  O 
  O2428    1.0000 0.36442  0.19593  0.42561  Biso   1.000  O 
  O2429    1.0000 0.46786  0.19593  0.42395  Biso   1.000  O 
  O2430    1.0000 0.29305  0.19593  0.43786  Biso   1.000  O 
  Ca931    1.0000 0.29178  0.24945  0.39299  Biso   1.000  Ca
  Ca932    1.0000 0.45844  0.18696  0.39300  Biso   1.000  Ca
  Ca933    1.0000 0.45844  0.24982  0.39300  Biso   1.000  Ca
  Ca934    1.0000 0.29178  0.18731  0.39299  Biso   1.000  Ca
  Ca935    1.0000 0.34506  0.21838  0.40675  Biso   1.000  Ca
  P559     1.0000 0.37136  0.21838  0.43460  Biso   1.000  P 
  O2431    1.0000 0.48484  0.21838  0.39582  Biso   1.000  O 
  O2432    1.0000 0.39463  0.21838  0.43713  Biso   1.000  O 
  Ca936    1.0000 0.49929  0.21838  0.42078  Biso   1.000  Ca
  P560     1.0000 0.45404  0.21838  0.42397  Biso   1.000  P 
  O2433    1.0000 0.44200  0.21838  0.40876  Biso   1.000  O 
  O2434    1.0000 0.43949  0.21838  0.43784  Biso   1.000  O 
  Ca937    1.0000 0.40599  0.21838  0.40568  Biso   1.000  Ca
  P561     1.0000 0.29995  0.21838  0.42886  Biso   1.000  P 
  O2435    1.0000 0.32350  0.21838  0.42864  Biso   1.000  O 
  O2436    1.0000 0.29122  0.21838  0.41246  Biso   1.000  O 
  Ca938    1.0000 0.28018  0.15589  0.43346  Biso   1.000  Ca
  P562     1.0000 0.25386  0.15589  0.40561  Biso   1.000  P 
  O2437    1.0000 0.39039  0.15589  0.44439  Biso   1.000  O 
  O2438    1.0000 0.48060  0.15589  0.40309  Biso   1.000  O 
  Ca939    1.0000 0.37593  0.15589  0.41943  Biso   1.000  Ca
  P563     1.0000 0.42119  0.15589  0.41624  Biso   1.000  P 
  O2439    1.0000 0.43322  0.15589  0.43146  Biso   1.000  O 
  O2440    1.0000 0.43573  0.15589  0.40237  Biso   1.000  O 
  Ca940    1.0000 0.46922  0.15589  0.43454  Biso   1.000  Ca
  P564     1.0000 0.32528  0.15589  0.41135  Biso   1.000  P 
  O2441    1.0000 0.30172  0.15589  0.41157  Biso   1.000  O 
  O2442    1.0000 0.33400  0.15589  0.42775  Biso   1.000  O 
  O2443    1.0000 0.37511  0.14938  0.39300  Biso   1.000  O 
  O2444    1.0000 0.37511  0.21187  0.39300  Biso   1.000  O 
  H187     1.0000 0.37511  0.12920  0.39300  Biso   1.000  H 
  H188     1.0000 0.37522  0.19169  0.39295  Biso   1.000  H 
  O2445    1.0000 0.48942  0.24085  0.47982  Biso   1.000  O 
  O2446    1.0000 0.34286  0.24085  0.47817  Biso   1.000  O 
  O2447    1.0000 0.41805  0.24085  0.49208  Biso   1.000  O 
  O2448    1.0000 0.38580  0.17835  0.46882  Biso   1.000  O 
  O2449    1.0000 0.28236  0.17835  0.47047  Biso   1.000  O 
  O2450    1.0000 0.45717  0.17835  0.45657  Biso   1.000  O 
  O2451    1.0000 0.38580  0.13342  0.46882  Biso   1.000  O 
  O2452    1.0000 0.28236  0.13342  0.47047  Biso   1.000  O 
  O2453    1.0000 0.45717  0.13342  0.45657  Biso   1.000  O 
  O2454    1.0000 0.48942  0.19593  0.47982  Biso   1.000  O 
  O2455    1.0000 0.34286  0.19593  0.47817  Biso   1.000  O 
  O2456    1.0000 0.41805  0.19593  0.49208  Biso   1.000  O 
  Ca941    1.0000 0.41678  0.24945  0.44721  Biso   1.000  Ca
  Ca942    1.0000 0.33344  0.18696  0.44722  Biso   1.000  Ca
  Ca943    1.0000 0.33344  0.24982  0.44722  Biso   1.000  Ca
  Ca944    1.0000 0.41678  0.18731  0.44721  Biso   1.000  Ca
  Ca945    1.0000 0.47006  0.21838  0.46097  Biso   1.000  Ca
  P565     1.0000 0.49636  0.21838  0.48881  Biso   1.000  P 
  O2457    1.0000 0.35984  0.21838  0.45004  Biso   1.000  O 
  O2458    1.0000 0.26963  0.21838  0.49134  Biso   1.000  O 
  Ca946    1.0000 0.37429  0.21838  0.47500  Biso   1.000  Ca
  P566     1.0000 0.32904  0.21838  0.47819  Biso   1.000  P 
  O2459    1.0000 0.31700  0.21838  0.46298  Biso   1.000  O 
  O2460    1.0000 0.31449  0.21838  0.49206  Biso   1.000  O 
  Ca947    1.0000 0.28099  0.21838  0.45990  Biso   1.000  Ca
  P567     1.0000 0.42495  0.21838  0.48308  Biso   1.000  P 
  O2461    1.0000 0.44850  0.21838  0.48285  Biso   1.000  O 
  O2462    1.0000 0.41622  0.21838  0.46667  Biso   1.000  O 
  Ca948    1.0000 0.40518  0.15589  0.48768  Biso   1.000  Ca
  P568     1.0000 0.37886  0.15589  0.45983  Biso   1.000  P 
  O2463    1.0000 0.26539  0.15589  0.49861  Biso   1.000  O 
  O2464    1.0000 0.35560  0.15589  0.45731  Biso   1.000  O 
  Ca949    1.0000 0.25093  0.15589  0.47365  Biso   1.000  Ca
  P569     1.0000 0.29619  0.15589  0.47046  Biso   1.000  P 
  O2465    1.0000 0.30822  0.15589  0.48568  Biso   1.000  O 
  O2466    1.0000 0.31073  0.15589  0.45658  Biso   1.000  O 
  Ca950    1.0000 0.34422  0.15589  0.48875  Biso   1.000  Ca
  P570     1.0000 0.45028  0.15589  0.46557  Biso   1.000  P 
  O2467    1.0000 0.42672  0.15589  0.46579  Biso   1.000  O 
  O2468    1.0000 0.45900  0.15589  0.48197  Biso   1.000  O 
  O2469    1.0000 0.25011  0.14938  0.44722  Biso   1.000  O 
  O2470    1.0000 0.25011  0.21187  0.44722  Biso   1.000  O 
  H189     1.0000 0.25011  0.12920  0.44722  Biso   1.000  H 
  H190     1.0000 0.25022  0.19169  0.44717  Biso   1.000  H 
  O2471    1.0000 0.36442  0.24085  0.53404  Biso   1.000  O 
  O2472    1.0000 0.46786  0.24085  0.53239  Biso   1.000  O 
  O2473    1.0000 0.29305  0.24085  0.54629  Biso   1.000  O 
  O2474    1.0000 0.26080  0.17835  0.52304  Biso   1.000  O 
  O2475    1.0000 0.40736  0.17835  0.52469  Biso   1.000  O 
  O2476    1.0000 0.33217  0.17835  0.51079  Biso   1.000  O 
  O2477    1.0000 0.26080  0.13342  0.52304  Biso   1.000  O 
  O2478    1.0000 0.40736  0.13342  0.52469  Biso   1.000  O 
  O2479    1.0000 0.33217  0.13342  0.51079  Biso   1.000  O 
  O2480    1.0000 0.36442  0.19593  0.53404  Biso   1.000  O 
  O2481    1.0000 0.46786  0.19593  0.53239  Biso   1.000  O 
  O2482    1.0000 0.29305  0.19593  0.54629  Biso   1.000  O 
  Ca951    1.0000 0.29178  0.24945  0.50143  Biso   1.000  Ca
  Ca952    1.0000 0.45844  0.18696  0.50144  Biso   1.000  Ca
  Ca953    1.0000 0.45844  0.24982  0.50144  Biso   1.000  Ca
  Ca954    1.0000 0.29178  0.18731  0.50143  Biso   1.000  Ca
  Ca955    1.0000 0.34506  0.21838  0.51519  Biso   1.000  Ca
  P571     1.0000 0.37136  0.21838  0.54303  Biso   1.000  P 
  O2483    1.0000 0.48484  0.21838  0.50426  Biso   1.000  O 
  O2484    1.0000 0.39463  0.21838  0.54556  Biso   1.000  O 
  Ca956    1.0000 0.49929  0.21838  0.52922  Biso   1.000  Ca
  P572     1.0000 0.45404  0.21838  0.53241  Biso   1.000  P 
  O2485    1.0000 0.44200  0.21838  0.51720  Biso   1.000  O 
  O2486    1.0000 0.43949  0.21838  0.54628  Biso   1.000  O 
  Ca957    1.0000 0.40599  0.21838  0.51412  Biso   1.000  Ca
  P573     1.0000 0.29995  0.21838  0.53729  Biso   1.000  P 
  O2487    1.0000 0.32350  0.21838  0.53707  Biso   1.000  O 
  O2488    1.0000 0.29122  0.21838  0.52089  Biso   1.000  O 
  Ca958    1.0000 0.28018  0.15589  0.54190  Biso   1.000  Ca
  P574     1.0000 0.25386  0.15589  0.51405  Biso   1.000  P 
  O2489    1.0000 0.39039  0.15589  0.55283  Biso   1.000  O 
  O2490    1.0000 0.48060  0.15589  0.51152  Biso   1.000  O 
  Ca959    1.0000 0.37593  0.15589  0.52786  Biso   1.000  Ca
  P575     1.0000 0.42119  0.15589  0.52468  Biso   1.000  P 
  O2491    1.0000 0.43322  0.15589  0.53989  Biso   1.000  O 
  O2492    1.0000 0.43573  0.15589  0.51080  Biso   1.000  O 
  Ca960    1.0000 0.46922  0.15589  0.54297  Biso   1.000  Ca
  P576     1.0000 0.32528  0.15589  0.51979  Biso   1.000  P 
  O2493    1.0000 0.30172  0.15589  0.52001  Biso   1.000  O 
  O2494    1.0000 0.33400  0.15589  0.53619  Biso   1.000  O 
  O2495    1.0000 0.37511  0.14938  0.50143  Biso   1.000  O 
  O2496    1.0000 0.37511  0.21187  0.50143  Biso   1.000  O 
  H191     1.0000 0.37511  0.12920  0.50143  Biso   1.000  H 
  H192     1.0000 0.37522  0.19169  0.50139  Biso   1.000  H 
  O2497    1.0000 0.48942  0.24085  0.58826  Biso   1.000  O 
  O2498    1.0000 0.34286  0.24085  0.58661  Biso   1.000  O 
  O2499    1.0000 0.41805  0.24085  0.60051  Biso   1.000  O 
  O2500    1.0000 0.38580  0.17835  0.57726  Biso   1.000  O 
  O2501    1.0000 0.28236  0.17835  0.57891  Biso   1.000  O 
  O2502    1.0000 0.45717  0.17835  0.56500  Biso   1.000  O 
  O2503    1.0000 0.38580  0.13342  0.57726  Biso   1.000  O 
  O2504    1.0000 0.28236  0.13342  0.57891  Biso   1.000  O 
  O2505    1.0000 0.45717  0.13342  0.56500  Biso   1.000  O 
  O2506    1.0000 0.48942  0.19593  0.58826  Biso   1.000  O 
  O2507    1.0000 0.34286  0.19593  0.58661  Biso   1.000  O 
  O2508    1.0000 0.41805  0.19593  0.60051  Biso   1.000  O 
  Ca961    1.0000 0.41678  0.24945  0.55565  Biso   1.000  Ca
  Ca962    1.0000 0.33344  0.18696  0.55565  Biso   1.000  Ca
  Ca963    1.0000 0.33344  0.24982  0.55565  Biso   1.000  Ca
  Ca964    1.0000 0.41678  0.18731  0.55565  Biso   1.000  Ca
  Ca965    1.0000 0.47006  0.21838  0.56941  Biso   1.000  Ca
  P577     1.0000 0.49636  0.21838  0.59725  Biso   1.000  P 
  O2509    1.0000 0.35984  0.21838  0.55847  Biso   1.000  O 
  O2510    1.0000 0.26963  0.21838  0.59978  Biso   1.000  O 
  Ca966    1.0000 0.37429  0.21838  0.58343  Biso   1.000  Ca
  P578     1.0000 0.32904  0.21838  0.58662  Biso   1.000  P 
  O2511    1.0000 0.31700  0.21838  0.57141  Biso   1.000  O 
  O2512    1.0000 0.31449  0.21838  0.60050  Biso   1.000  O 
  Ca967    1.0000 0.28099  0.21838  0.56834  Biso   1.000  Ca
  P579     1.0000 0.42495  0.21838  0.59151  Biso   1.000  P 
  O2513    1.0000 0.44850  0.21838  0.59129  Biso   1.000  O 
  O2514    1.0000 0.41622  0.21838  0.57511  Biso   1.000  O 
  Ca968    1.0000 0.40518  0.15589  0.59611  Biso   1.000  Ca
  P580     1.0000 0.37886  0.15589  0.56827  Biso   1.000  P 
  O2515    1.0000 0.26539  0.15589  0.60705  Biso   1.000  O 
  O2516    1.0000 0.35560  0.15589  0.56574  Biso   1.000  O 
  Ca969    1.0000 0.25093  0.15589  0.58208  Biso   1.000  Ca
  P581     1.0000 0.29619  0.15589  0.57890  Biso   1.000  P 
  O2517    1.0000 0.30822  0.15589  0.59411  Biso   1.000  O 
  O2518    1.0000 0.31073  0.15589  0.56502  Biso   1.000  O 
  Ca970    1.0000 0.34422  0.15589  0.59719  Biso   1.000  Ca
  P582     1.0000 0.45028  0.15589  0.57400  Biso   1.000  P 
  O2519    1.0000 0.42672  0.15589  0.57423  Biso   1.000  O 
  O2520    1.0000 0.45900  0.15589  0.59041  Biso   1.000  O 
  O2521    1.0000 0.25011  0.14938  0.55565  Biso   1.000  O 
  O2522    1.0000 0.25011  0.21187  0.55565  Biso   1.000  O 
  H193     1.0000 0.25011  0.12920  0.55565  Biso   1.000  H 
  H194     1.0000 0.25022  0.19169  0.55561  Biso   1.000  H 
  O2523    1.0000 0.36442  0.24085  0.64248  Biso   1.000  O 
  O2524    1.0000 0.46786  0.24085  0.64083  Biso   1.000  O 
  O2525    1.0000 0.29305  0.24085  0.65473  Biso   1.000  O 
  O2526    1.0000 0.26080  0.17835  0.63147  Biso   1.000  O 
  O2527    1.0000 0.40736  0.17835  0.63313  Biso   1.000  O 
  O2528    1.0000 0.33217  0.17835  0.61922  Biso   1.000  O 
  O2529    1.0000 0.26080  0.13342  0.63147  Biso   1.000  O 
  O2530    1.0000 0.40736  0.13342  0.63313  Biso   1.000  O 
  O2531    1.0000 0.33217  0.13342  0.61922  Biso   1.000  O 
  O2532    1.0000 0.36442  0.19593  0.64248  Biso   1.000  O 
  O2533    1.0000 0.46786  0.19593  0.64083  Biso   1.000  O 
  O2534    1.0000 0.29305  0.19593  0.65473  Biso   1.000  O 
  Ca971    1.0000 0.29178  0.24945  0.60986  Biso   1.000  Ca
  Ca972    1.0000 0.45844  0.18696  0.60987  Biso   1.000  Ca
  Ca973    1.0000 0.45844  0.24982  0.60987  Biso   1.000  Ca
  Ca974    1.0000 0.29178  0.18731  0.60986  Biso   1.000  Ca
  Ca975    1.0000 0.34506  0.21838  0.62363  Biso   1.000  Ca
  P583     1.0000 0.37136  0.21838  0.65147  Biso   1.000  P 
  O2535    1.0000 0.48484  0.21838  0.61269  Biso   1.000  O 
  O2536    1.0000 0.39463  0.21838  0.65400  Biso   1.000  O 
  Ca976    1.0000 0.49929  0.21838  0.63765  Biso   1.000  Ca
  P584     1.0000 0.45404  0.21838  0.64084  Biso   1.000  P 
  O2537    1.0000 0.44200  0.21838  0.62563  Biso   1.000  O 
  O2538    1.0000 0.43949  0.21838  0.65471  Biso   1.000  O 
  Ca977    1.0000 0.40599  0.21838  0.62255  Biso   1.000  Ca
  P585     1.0000 0.29995  0.21838  0.64573  Biso   1.000  P 
  O2539    1.0000 0.32350  0.21838  0.64551  Biso   1.000  O 
  O2540    1.0000 0.29122  0.21838  0.62933  Biso   1.000  O 
  Ca978    1.0000 0.28018  0.15589  0.65033  Biso   1.000  Ca
  P586     1.0000 0.25386  0.15589  0.62248  Biso   1.000  P 
  O2541    1.0000 0.39039  0.15589  0.66127  Biso   1.000  O 
  O2542    1.0000 0.48060  0.15589  0.61996  Biso   1.000  O 
  Ca979    1.0000 0.37593  0.15589  0.63630  Biso   1.000  Ca
  P587     1.0000 0.42119  0.15589  0.63312  Biso   1.000  P 
  O2543    1.0000 0.43322  0.15589  0.64833  Biso   1.000  O 
  O2544    1.0000 0.43573  0.15589  0.61924  Biso   1.000  O 
  Ca980    1.0000 0.46922  0.15589  0.65141  Biso   1.000  Ca
  P588     1.0000 0.32528  0.15589  0.62822  Biso   1.000  P 
  O2545    1.0000 0.30172  0.15589  0.62845  Biso   1.000  O 
  O2546    1.0000 0.33400  0.15589  0.64462  Biso   1.000  O 
  O2547    1.0000 0.37511  0.14938  0.60987  Biso   1.000  O 
  O2548    1.0000 0.37511  0.21187  0.60987  Biso   1.000  O 
  H195     1.0000 0.37511  0.12920  0.60987  Biso   1.000  H 
  H196     1.0000 0.37522  0.19169  0.60982  Biso   1.000  H 
  O2549    1.0000 0.48942  0.24085  0.69670  Biso   1.000  O 
  O2550    1.0000 0.34286  0.24085  0.69504  Biso   1.000  O 
  O2551    1.0000 0.41805  0.24085  0.70895  Biso   1.000  O 
  O2552    1.0000 0.38580  0.17835  0.68569  Biso   1.000  O 
  O2553    1.0000 0.28236  0.17835  0.68734  Biso   1.000  O 
  O2554    1.0000 0.45717  0.17835  0.67344  Biso   1.000  O 
  O2555    1.0000 0.38580  0.13342  0.68569  Biso   1.000  O 
  O2556    1.0000 0.28236  0.13342  0.68734  Biso   1.000  O 
  O2557    1.0000 0.45717  0.13342  0.67344  Biso   1.000  O 
  O2558    1.0000 0.48942  0.19593  0.69670  Biso   1.000  O 
  O2559    1.0000 0.34286  0.19593  0.69504  Biso   1.000  O 
  O2560    1.0000 0.41805  0.19593  0.70895  Biso   1.000  O 
  Ca981    1.0000 0.41678  0.24945  0.66408  Biso   1.000  Ca
  Ca982    1.0000 0.33344  0.18696  0.66409  Biso   1.000  Ca
  Ca983    1.0000 0.33344  0.24982  0.66409  Biso   1.000  Ca
  Ca984    1.0000 0.41678  0.18731  0.66408  Biso   1.000  Ca
  Ca985    1.0000 0.47006  0.21838  0.67784  Biso   1.000  Ca
  P589     1.0000 0.49636  0.21838  0.70569  Biso   1.000  P 
  O2561    1.0000 0.35984  0.21838  0.66691  Biso   1.000  O 
  O2562    1.0000 0.26963  0.21838  0.70822  Biso   1.000  O 
  Ca986    1.0000 0.37429  0.21838  0.69187  Biso   1.000  Ca
  P590     1.0000 0.32904  0.21838  0.69506  Biso   1.000  P 
  O2563    1.0000 0.31700  0.21838  0.67985  Biso   1.000  O 
  O2564    1.0000 0.31449  0.21838  0.70893  Biso   1.000  O 
  Ca987    1.0000 0.28099  0.21838  0.67677  Biso   1.000  Ca
  P591     1.0000 0.42495  0.21838  0.69995  Biso   1.000  P 
  O2565    1.0000 0.44850  0.21838  0.69973  Biso   1.000  O 
  O2566    1.0000 0.41622  0.21838  0.68355  Biso   1.000  O 
  Ca988    1.0000 0.40518  0.15589  0.70455  Biso   1.000  Ca
  P592     1.0000 0.37886  0.15589  0.67670  Biso   1.000  P 
  O2567    1.0000 0.26539  0.15589  0.71548  Biso   1.000  O 
  O2568    1.0000 0.35560  0.15589  0.67418  Biso   1.000  O 
  Ca989    1.0000 0.25093  0.15589  0.69052  Biso   1.000  Ca
  P593     1.0000 0.29619  0.15589  0.68733  Biso   1.000  P 
  O2569    1.0000 0.30822  0.15589  0.70255  Biso   1.000  O 
  O2570    1.0000 0.31073  0.15589  0.67346  Biso   1.000  O 
  Ca990    1.0000 0.34422  0.15589  0.70563  Biso   1.000  Ca
  P594     1.0000 0.45028  0.15589  0.68244  Biso   1.000  P 
  O2571    1.0000 0.42672  0.15589  0.68266  Biso   1.000  O 
  O2572    1.0000 0.45900  0.15589  0.69884  Biso   1.000  O 
  O2573    1.0000 0.25011  0.14938  0.66409  Biso   1.000  O 
  O2574    1.0000 0.25011  0.21187  0.66409  Biso   1.000  O 
  H197     1.0000 0.25011  0.12920  0.66409  Biso   1.000  H 
  H198     1.0000 0.25022  0.19169  0.66404  Biso   1.000  H 
  O2575    1.0000 0.36442  0.24085  0.75091  Biso   1.000  O 
  O2576    1.0000 0.46786  0.24085  0.74926  Biso   1.000  O 
  O2577    1.0000 0.29305  0.24085  0.76317  Biso   1.000  O 
  O2578    1.0000 0.26080  0.17835  0.73991  Biso   1.000  O 
  O2579    1.0000 0.40736  0.17835  0.74156  Biso   1.000  O 
  O2580    1.0000 0.33217  0.17835  0.72766  Biso   1.000  O 
  O2581    1.0000 0.26080  0.13342  0.73991  Biso   1.000  O 
  O2582    1.0000 0.40736  0.13342  0.74156  Biso   1.000  O 
  O2583    1.0000 0.33217  0.13342  0.72766  Biso   1.000  O 
  O2584    1.0000 0.36442  0.19593  0.75091  Biso   1.000  O 
  O2585    1.0000 0.46786  0.19593  0.74926  Biso   1.000  O 
  O2586    1.0000 0.29305  0.19593  0.76317  Biso   1.000  O 
  Ca991    1.0000 0.29178  0.24945  0.71830  Biso   1.000  Ca
  Ca992    1.0000 0.45844  0.18696  0.71831  Biso   1.000  Ca
  Ca993    1.0000 0.45844  0.24982  0.71831  Biso   1.000  Ca
  Ca994    1.0000 0.29178  0.18731  0.71830  Biso   1.000  Ca
  Ca995    1.0000 0.34506  0.21838  0.73206  Biso   1.000  Ca
  P595     1.0000 0.37136  0.21838  0.75990  Biso   1.000  P 
  O2587    1.0000 0.48484  0.21838  0.72113  Biso   1.000  O 
  O2588    1.0000 0.39463  0.21838  0.76243  Biso   1.000  O 
  Ca996    1.0000 0.49929  0.21838  0.74609  Biso   1.000  Ca
  P596     1.0000 0.45404  0.21838  0.74928  Biso   1.000  P 
  O2589    1.0000 0.44200  0.21838  0.73407  Biso   1.000  O 
  O2590    1.0000 0.43949  0.21838  0.76315  Biso   1.000  O 
  Ca997    1.0000 0.40599  0.21838  0.73099  Biso   1.000  Ca
  P597     1.0000 0.29995  0.21838  0.75417  Biso   1.000  P 
  O2591    1.0000 0.32350  0.21838  0.75394  Biso   1.000  O 
  O2592    1.0000 0.29122  0.21838  0.73776  Biso   1.000  O 
  Ca998    1.0000 0.28018  0.15589  0.75877  Biso   1.000  Ca
  P598     1.0000 0.25386  0.15589  0.73092  Biso   1.000  P 
  O2593    1.0000 0.39039  0.15589  0.76970  Biso   1.000  O 
  O2594    1.0000 0.48060  0.15589  0.72840  Biso   1.000  O 
  Ca999    1.0000 0.37593  0.15589  0.74474  Biso   1.000  Ca
  P599     1.0000 0.42119  0.15589  0.74155  Biso   1.000  P 
  O2595    1.0000 0.43322  0.15589  0.75677  Biso   1.000  O 
  O2596    1.0000 0.43573  0.15589  0.72767  Biso   1.000  O 
  Ca1000   1.0000 0.46922  0.15589  0.75984  Biso   1.000  Ca
  P600     1.0000 0.32528  0.15589  0.73666  Biso   1.000  P 
  O2597    1.0000 0.30172  0.15589  0.73688  Biso   1.000  O 
  O2598    1.0000 0.33400  0.15589  0.75306  Biso   1.000  O 
  O2599    1.0000 0.37511  0.14938  0.71831  Biso   1.000  O 
  O2600    1.0000 0.37511  0.21187  0.71831  Biso   1.000  O 
  H199     1.0000 0.37511  0.12920  0.71831  Biso   1.000  H 
  H200     1.0000 0.37522  0.19169  0.71826  Biso   1.000  H 
  O2601    1.0000 0.48942  0.36585  0.26295  Biso   1.000  O 
  O2602    1.0000 0.34286  0.36585  0.26130  Biso   1.000  O 
  O2603    1.0000 0.41805  0.36585  0.27520  Biso   1.000  O 
  O2604    1.0000 0.38580  0.30335  0.25195  Biso   1.000  O 
  O2605    1.0000 0.28236  0.30335  0.25360  Biso   1.000  O 
  O2606    1.0000 0.45717  0.30335  0.23970  Biso   1.000  O 
  O2607    1.0000 0.38580  0.25842  0.25195  Biso   1.000  O 
  O2608    1.0000 0.28236  0.25842  0.25360  Biso   1.000  O 
  O2609    1.0000 0.45717  0.25842  0.23970  Biso   1.000  O 
  O2610    1.0000 0.48942  0.32093  0.26295  Biso   1.000  O 
  O2611    1.0000 0.34286  0.32093  0.26130  Biso   1.000  O 
  O2612    1.0000 0.41805  0.32093  0.27520  Biso   1.000  O 
  Ca1001   1.0000 0.41678  0.37445  0.23034  Biso   1.000  Ca
  Ca1002   1.0000 0.33344  0.31196  0.23035  Biso   1.000  Ca
  Ca1003   1.0000 0.33344  0.37482  0.23035  Biso   1.000  Ca
  Ca1004   1.0000 0.41678  0.31231  0.23034  Biso   1.000  Ca
  Ca1005   1.0000 0.47006  0.34338  0.24410  Biso   1.000  Ca
  P601     1.0000 0.49636  0.34338  0.27194  Biso   1.000  P 
  O2613    1.0000 0.35984  0.34338  0.23317  Biso   1.000  O 
  O2614    1.0000 0.26963  0.34338  0.27447  Biso   1.000  O 
  Ca1006   1.0000 0.37429  0.34338  0.25813  Biso   1.000  Ca
  P602     1.0000 0.32904  0.34338  0.26132  Biso   1.000  P 
  O2615    1.0000 0.31700  0.34338  0.24611  Biso   1.000  O 
  O2616    1.0000 0.31449  0.34338  0.27519  Biso   1.000  O 
  Ca1007   1.0000 0.28099  0.34338  0.24303  Biso   1.000  Ca
  P603     1.0000 0.42495  0.34338  0.26620  Biso   1.000  P 
  O2617    1.0000 0.44850  0.34338  0.26598  Biso   1.000  O 
  O2618    1.0000 0.41622  0.34338  0.24980  Biso   1.000  O 
  Ca1008   1.0000 0.40518  0.28089  0.27081  Biso   1.000  Ca
  P604     1.0000 0.37886  0.28089  0.24296  Biso   1.000  P 
  O2619    1.0000 0.26539  0.28089  0.28174  Biso   1.000  O 
  O2620    1.0000 0.35560  0.28089  0.24043  Biso   1.000  O 
  Ca1009   1.0000 0.25093  0.28089  0.25677  Biso   1.000  Ca
  P605     1.0000 0.29619  0.28089  0.25359  Biso   1.000  P 
  O2621    1.0000 0.30822  0.28089  0.26880  Biso   1.000  O 
  O2622    1.0000 0.31073  0.28089  0.23971  Biso   1.000  O 
  Ca1010   1.0000 0.34422  0.28089  0.27188  Biso   1.000  Ca
  P606     1.0000 0.45028  0.28089  0.24870  Biso   1.000  P 
  O2623    1.0000 0.42672  0.28089  0.24892  Biso   1.000  O 
  O2624    1.0000 0.45900  0.28089  0.26510  Biso   1.000  O 
  O2625    1.0000 0.25011  0.27438  0.23034  Biso   1.000  O 
  O2626    1.0000 0.25011  0.33687  0.23034  Biso   1.000  O 
  H201     1.0000 0.25011  0.25420  0.23034  Biso   1.000  H 
  H202     1.0000 0.25022  0.31669  0.23030  Biso   1.000  H 
  O2627    1.0000 0.36442  0.36585  0.31717  Biso   1.000  O 
  O2628    1.0000 0.46786  0.36585  0.31552  Biso   1.000  O 
  O2629    1.0000 0.29305  0.36585  0.32942  Biso   1.000  O 
  O2630    1.0000 0.26080  0.30335  0.30617  Biso   1.000  O 
  O2631    1.0000 0.40736  0.30335  0.30782  Biso   1.000  O 
  O2632    1.0000 0.33217  0.30335  0.29391  Biso   1.000  O 
  O2633    1.0000 0.26080  0.25842  0.30617  Biso   1.000  O 
  O2634    1.0000 0.40736  0.25842  0.30782  Biso   1.000  O 
  O2635    1.0000 0.33217  0.25842  0.29391  Biso   1.000  O 
  O2636    1.0000 0.36442  0.32093  0.31717  Biso   1.000  O 
  O2637    1.0000 0.46786  0.32093  0.31552  Biso   1.000  O 
  O2638    1.0000 0.29305  0.32093  0.32942  Biso   1.000  O 
  Ca1011   1.0000 0.29178  0.37445  0.28456  Biso   1.000  Ca
  Ca1012   1.0000 0.45844  0.31196  0.28456  Biso   1.000  Ca
  Ca1013   1.0000 0.45844  0.37482  0.28456  Biso   1.000  Ca
  Ca1014   1.0000 0.29178  0.31231  0.28456  Biso   1.000  Ca
  Ca1015   1.0000 0.34506  0.34338  0.29832  Biso   1.000  Ca
  P607     1.0000 0.37136  0.34338  0.32616  Biso   1.000  P 
  O2639    1.0000 0.48484  0.34338  0.28738  Biso   1.000  O 
  O2640    1.0000 0.39463  0.34338  0.32869  Biso   1.000  O 
  Ca1016   1.0000 0.49929  0.34338  0.31234  Biso   1.000  Ca
  P608     1.0000 0.45404  0.34338  0.31554  Biso   1.000  P 
  O2641    1.0000 0.44200  0.34338  0.30033  Biso   1.000  O 
  O2642    1.0000 0.43949  0.34338  0.32941  Biso   1.000  O 
  Ca1017   1.0000 0.40599  0.34338  0.29725  Biso   1.000  Ca
  P609     1.0000 0.29995  0.34338  0.32042  Biso   1.000  P 
  O2643    1.0000 0.32350  0.34338  0.32020  Biso   1.000  O 
  O2644    1.0000 0.29122  0.34338  0.30402  Biso   1.000  O 
  Ca1018   1.0000 0.28018  0.28089  0.32502  Biso   1.000  Ca
  P610     1.0000 0.25386  0.28089  0.29718  Biso   1.000  P 
  O2645    1.0000 0.39039  0.28089  0.33596  Biso   1.000  O 
  O2646    1.0000 0.48060  0.28089  0.29465  Biso   1.000  O 
  Ca1019   1.0000 0.37593  0.28089  0.31099  Biso   1.000  Ca
  P611     1.0000 0.42119  0.28089  0.30781  Biso   1.000  P 
  O2647    1.0000 0.43322  0.28089  0.32302  Biso   1.000  O 
  O2648    1.0000 0.43573  0.28089  0.29393  Biso   1.000  O 
  Ca1020   1.0000 0.46922  0.28089  0.32610  Biso   1.000  Ca
  P612     1.0000 0.32528  0.28089  0.30291  Biso   1.000  P 
  O2649    1.0000 0.30172  0.28089  0.30314  Biso   1.000  O 
  O2650    1.0000 0.33400  0.28089  0.31932  Biso   1.000  O 
  O2651    1.0000 0.37511  0.27438  0.28456  Biso   1.000  O 
  O2652    1.0000 0.37511  0.33687  0.28456  Biso   1.000  O 
  H203     1.0000 0.37511  0.25420  0.28456  Biso   1.000  H 
  H204     1.0000 0.37522  0.31669  0.28452  Biso   1.000  H 
  O2653    1.0000 0.48942  0.36585  0.37139  Biso   1.000  O 
  O2654    1.0000 0.34286  0.36585  0.36974  Biso   1.000  O 
  O2655    1.0000 0.41805  0.36585  0.38364  Biso   1.000  O 
  O2656    1.0000 0.38580  0.30335  0.36038  Biso   1.000  O 
  O2657    1.0000 0.28236  0.30335  0.36204  Biso   1.000  O 
  O2658    1.0000 0.45717  0.30335  0.34813  Biso   1.000  O 
  O2659    1.0000 0.38580  0.25842  0.36038  Biso   1.000  O 
  O2660    1.0000 0.28236  0.25842  0.36204  Biso   1.000  O 
  O2661    1.0000 0.45717  0.25842  0.34813  Biso   1.000  O 
  O2662    1.0000 0.48942  0.32093  0.37139  Biso   1.000  O 
  O2663    1.0000 0.34286  0.32093  0.36974  Biso   1.000  O 
  O2664    1.0000 0.41805  0.32093  0.38364  Biso   1.000  O 
  Ca1021   1.0000 0.41678  0.37445  0.33877  Biso   1.000  Ca
  Ca1022   1.0000 0.33344  0.31196  0.33878  Biso   1.000  Ca
  Ca1023   1.0000 0.33344  0.37482  0.33878  Biso   1.000  Ca
  Ca1024   1.0000 0.41678  0.31231  0.33877  Biso   1.000  Ca
  Ca1025   1.0000 0.47006  0.34338  0.35254  Biso   1.000  Ca
  P613     1.0000 0.49636  0.34338  0.38038  Biso   1.000  P 
  O2665    1.0000 0.35984  0.34338  0.34160  Biso   1.000  O 
  O2666    1.0000 0.26963  0.34338  0.38291  Biso   1.000  O 
  Ca1026   1.0000 0.37429  0.34338  0.36656  Biso   1.000  Ca
  P614     1.0000 0.32904  0.34338  0.36975  Biso   1.000  P 
  O2667    1.0000 0.31700  0.34338  0.35454  Biso   1.000  O 
  O2668    1.0000 0.31449  0.34338  0.38362  Biso   1.000  O 
  Ca1027   1.0000 0.28099  0.34338  0.35146  Biso   1.000  Ca
  P615     1.0000 0.42495  0.34338  0.37464  Biso   1.000  P 
  O2669    1.0000 0.44850  0.34338  0.37442  Biso   1.000  O 
  O2670    1.0000 0.41622  0.34338  0.35824  Biso   1.000  O 
  Ca1028   1.0000 0.40518  0.28089  0.37924  Biso   1.000  Ca
  P616     1.0000 0.37886  0.28089  0.35140  Biso   1.000  P 
  O2671    1.0000 0.26539  0.28089  0.39018  Biso   1.000  O 
  O2672    1.0000 0.35560  0.28089  0.34887  Biso   1.000  O 
  Ca1029   1.0000 0.25093  0.28089  0.36521  Biso   1.000  Ca
  P617     1.0000 0.29619  0.28089  0.36203  Biso   1.000  P 
  O2673    1.0000 0.30822  0.28089  0.37724  Biso   1.000  O 
  O2674    1.0000 0.31073  0.28089  0.34815  Biso   1.000  O 
  Ca1030   1.0000 0.34422  0.28089  0.38032  Biso   1.000  Ca
  P618     1.0000 0.45028  0.28089  0.35713  Biso   1.000  P 
  O2675    1.0000 0.42672  0.28089  0.35736  Biso   1.000  O 
  O2676    1.0000 0.45900  0.28089  0.37353  Biso   1.000  O 
  O2677    1.0000 0.25011  0.27438  0.33878  Biso   1.000  O 
  O2678    1.0000 0.25011  0.33687  0.33878  Biso   1.000  O 
  H205     1.0000 0.25011  0.25420  0.33878  Biso   1.000  H 
  H206     1.0000 0.25022  0.31669  0.33873  Biso   1.000  H 
  O2679    1.0000 0.36442  0.36585  0.42561  Biso   1.000  O 
  O2680    1.0000 0.46786  0.36585  0.42395  Biso   1.000  O 
  O2681    1.0000 0.29305  0.36585  0.43786  Biso   1.000  O 
  O2682    1.0000 0.26080  0.30335  0.41460  Biso   1.000  O 
  O2683    1.0000 0.40736  0.30335  0.41625  Biso   1.000  O 
  O2684    1.0000 0.33217  0.30335  0.40235  Biso   1.000  O 
  O2685    1.0000 0.26080  0.25842  0.41460  Biso   1.000  O 
  O2686    1.0000 0.40736  0.25842  0.41625  Biso   1.000  O 
  O2687    1.0000 0.33217  0.25842  0.40235  Biso   1.000  O 
  O2688    1.0000 0.36442  0.32093  0.42561  Biso   1.000  O 
  O2689    1.0000 0.46786  0.32093  0.42395  Biso   1.000  O 
  O2690    1.0000 0.29305  0.32093  0.43786  Biso   1.000  O 
  Ca1031   1.0000 0.29178  0.37445  0.39299  Biso   1.000  Ca
  Ca1032   1.0000 0.45844  0.31196  0.39300  Biso   1.000  Ca
  Ca1033   1.0000 0.45844  0.37482  0.39300  Biso   1.000  Ca
  Ca1034   1.0000 0.29178  0.31231  0.39299  Biso   1.000  Ca
  Ca1035   1.0000 0.34506  0.34338  0.40675  Biso   1.000  Ca
  P619     1.0000 0.37136  0.34338  0.43460  Biso   1.000  P 
  O2691    1.0000 0.48484  0.34338  0.39582  Biso   1.000  O 
  O2692    1.0000 0.39463  0.34338  0.43713  Biso   1.000  O 
  Ca1036   1.0000 0.49929  0.34338  0.42078  Biso   1.000  Ca
  P620     1.0000 0.45404  0.34338  0.42397  Biso   1.000  P 
  O2693    1.0000 0.44200  0.34338  0.40876  Biso   1.000  O 
  O2694    1.0000 0.43949  0.34338  0.43784  Biso   1.000  O 
  Ca1037   1.0000 0.40599  0.34338  0.40568  Biso   1.000  Ca
  P621     1.0000 0.29995  0.34338  0.42886  Biso   1.000  P 
  O2695    1.0000 0.32350  0.34338  0.42864  Biso   1.000  O 
  O2696    1.0000 0.29122  0.34338  0.41246  Biso   1.000  O 
  Ca1038   1.0000 0.28018  0.28089  0.43346  Biso   1.000  Ca
  P622     1.0000 0.25386  0.28089  0.40561  Biso   1.000  P 
  O2697    1.0000 0.39039  0.28089  0.44439  Biso   1.000  O 
  O2698    1.0000 0.48060  0.28089  0.40309  Biso   1.000  O 
  Ca1039   1.0000 0.37593  0.28089  0.41943  Biso   1.000  Ca
  P623     1.0000 0.42119  0.28089  0.41624  Biso   1.000  P 
  O2699    1.0000 0.43322  0.28089  0.43146  Biso   1.000  O 
  O2700    1.0000 0.43573  0.28089  0.40237  Biso   1.000  O 
  Ca1040   1.0000 0.46922  0.28089  0.43454  Biso   1.000  Ca
  P624     1.0000 0.32528  0.28089  0.41135  Biso   1.000  P 
  O2701    1.0000 0.30172  0.28089  0.41157  Biso   1.000  O 
  O2702    1.0000 0.33400  0.28089  0.42775  Biso   1.000  O 
  O2703    1.0000 0.37511  0.27438  0.39300  Biso   1.000  O 
  O2704    1.0000 0.37511  0.33687  0.39300  Biso   1.000  O 
  H207     1.0000 0.37511  0.25420  0.39300  Biso   1.000  H 
  H208     1.0000 0.37522  0.31669  0.39295  Biso   1.000  H 
  O2705    1.0000 0.48942  0.36585  0.47982  Biso   1.000  O 
  O2706    1.0000 0.34286  0.36585  0.47817  Biso   1.000  O 
  O2707    1.0000 0.41805  0.36585  0.49208  Biso   1.000  O 
  O2708    1.0000 0.38580  0.30335  0.46882  Biso   1.000  O 
  O2709    1.0000 0.28236  0.30335  0.47047  Biso   1.000  O 
  O2710    1.0000 0.45717  0.30335  0.45657  Biso   1.000  O 
  O2711    1.0000 0.38580  0.25842  0.46882  Biso   1.000  O 
  O2712    1.0000 0.28236  0.25842  0.47047  Biso   1.000  O 
  O2713    1.0000 0.45717  0.25842  0.45657  Biso   1.000  O 
  O2714    1.0000 0.48942  0.32093  0.47982  Biso   1.000  O 
  O2715    1.0000 0.34286  0.32093  0.47817  Biso   1.000  O 
  O2716    1.0000 0.41805  0.32093  0.49208  Biso   1.000  O 
  Ca1041   1.0000 0.41678  0.37445  0.44721  Biso   1.000  Ca
  Ca1042   1.0000 0.33344  0.31196  0.44722  Biso   1.000  Ca
  Ca1043   1.0000 0.33344  0.37482  0.44722  Biso   1.000  Ca
  Ca1044   1.0000 0.41678  0.31231  0.44721  Biso   1.000  Ca
  Ca1045   1.0000 0.47006  0.34338  0.46097  Biso   1.000  Ca
  P625     1.0000 0.49636  0.34338  0.48881  Biso   1.000  P 
  O2717    1.0000 0.35984  0.34338  0.45004  Biso   1.000  O 
  O2718    1.0000 0.26963  0.34338  0.49134  Biso   1.000  O 
  Ca1046   1.0000 0.37429  0.34338  0.47500  Biso   1.000  Ca
  P626     1.0000 0.32904  0.34338  0.47819  Biso   1.000  P 
  O2719    1.0000 0.31700  0.34338  0.46298  Biso   1.000  O 
  O2720    1.0000 0.31449  0.34338  0.49206  Biso   1.000  O 
  Ca1047   1.0000 0.28099  0.34338  0.45990  Biso   1.000  Ca
  P627     1.0000 0.42495  0.34338  0.48308  Biso   1.000  P 
  O2721    1.0000 0.44850  0.34338  0.48285  Biso   1.000  O 
  O2722    1.0000 0.41622  0.34338  0.46667  Biso   1.000  O 
  Ca1048   1.0000 0.40518  0.28089  0.48768  Biso   1.000  Ca
  P628     1.0000 0.37886  0.28089  0.45983  Biso   1.000  P 
  O2723    1.0000 0.26539  0.28089  0.49861  Biso   1.000  O 
  O2724    1.0000 0.35560  0.28089  0.45731  Biso   1.000  O 
  Ca1049   1.0000 0.25093  0.28089  0.47365  Biso   1.000  Ca
  P629     1.0000 0.29619  0.28089  0.47046  Biso   1.000  P 
  O2725    1.0000 0.30822  0.28089  0.48568  Biso   1.000  O 
  O2726    1.0000 0.31073  0.28089  0.45658  Biso   1.000  O 
  Ca1050   1.0000 0.34422  0.28089  0.48875  Biso   1.000  Ca
  P630     1.0000 0.45028  0.28089  0.46557  Biso   1.000  P 
  O2727    1.0000 0.42672  0.28089  0.46579  Biso   1.000  O 
  O2728    1.0000 0.45900  0.28089  0.48197  Biso   1.000  O 
  O2729    1.0000 0.25011  0.27438  0.44722  Biso   1.000  O 
  O2730    1.0000 0.25011  0.33687  0.44722  Biso   1.000  O 
  H209     1.0000 0.25011  0.25420  0.44722  Biso   1.000  H 
  H210     1.0000 0.25022  0.31669  0.44717  Biso   1.000  H 
  O2731    1.0000 0.36442  0.36585  0.53404  Biso   1.000  O 
  O2732    1.0000 0.46786  0.36585  0.53239  Biso   1.000  O 
  O2733    1.0000 0.29305  0.36585  0.54629  Biso   1.000  O 
  O2734    1.0000 0.26080  0.30335  0.52304  Biso   1.000  O 
  O2735    1.0000 0.40736  0.30335  0.52469  Biso   1.000  O 
  O2736    1.0000 0.33217  0.30335  0.51079  Biso   1.000  O 
  O2737    1.0000 0.26080  0.25842  0.52304  Biso   1.000  O 
  O2738    1.0000 0.40736  0.25842  0.52469  Biso   1.000  O 
  O2739    1.0000 0.33217  0.25842  0.51079  Biso   1.000  O 
  O2740    1.0000 0.36442  0.32093  0.53404  Biso   1.000  O 
  O2741    1.0000 0.46786  0.32093  0.53239  Biso   1.000  O 
  O2742    1.0000 0.29305  0.32093  0.54629  Biso   1.000  O 
  Ca1051   1.0000 0.29178  0.37445  0.50143  Biso   1.000  Ca
  Ca1052   1.0000 0.45844  0.31196  0.50144  Biso   1.000  Ca
  Ca1053   1.0000 0.45844  0.37482  0.50144  Biso   1.000  Ca
  Ca1054   1.0000 0.29178  0.31231  0.50143  Biso   1.000  Ca
  Ca1055   1.0000 0.34506  0.34338  0.51519  Biso   1.000  Ca
  P631     1.0000 0.37136  0.34338  0.54303  Biso   1.000  P 
  O2743    1.0000 0.48484  0.34338  0.50426  Biso   1.000  O 
  O2744    1.0000 0.39463  0.34338  0.54556  Biso   1.000  O 
  Ca1056   1.0000 0.49929  0.34338  0.52922  Biso   1.000  Ca
  P632     1.0000 0.45404  0.34338  0.53241  Biso   1.000  P 
  O2745    1.0000 0.44200  0.34338  0.51720  Biso   1.000  O 
  O2746    1.0000 0.43949  0.34338  0.54628  Biso   1.000  O 
  Ca1057   1.0000 0.40599  0.34338  0.51412  Biso   1.000  Ca
  P633     1.0000 0.29995  0.34338  0.53729  Biso   1.000  P 
  O2747    1.0000 0.32350  0.34338  0.53707  Biso   1.000  O 
  O2748    1.0000 0.29122  0.34338  0.52089  Biso   1.000  O 
  Ca1058   1.0000 0.28018  0.28089  0.54190  Biso   1.000  Ca
  P634     1.0000 0.25386  0.28089  0.51405  Biso   1.000  P 
  O2749    1.0000 0.39039  0.28089  0.55283  Biso   1.000  O 
  O2750    1.0000 0.48060  0.28089  0.51152  Biso   1.000  O 
  Ca1059   1.0000 0.37593  0.28089  0.52786  Biso   1.000  Ca
  P635     1.0000 0.42119  0.28089  0.52468  Biso   1.000  P 
  O2751    1.0000 0.43322  0.28089  0.53989  Biso   1.000  O 
  O2752    1.0000 0.43573  0.28089  0.51080  Biso   1.000  O 
  Ca1060   1.0000 0.46922  0.28089  0.54297  Biso   1.000  Ca
  P636     1.0000 0.32528  0.28089  0.51979  Biso   1.000  P 
  O2753    1.0000 0.30172  0.28089  0.52001  Biso   1.000  O 
  O2754    1.0000 0.33400  0.28089  0.53619  Biso   1.000  O 
  O2755    1.0000 0.37511  0.27438  0.50143  Biso   1.000  O 
  O2756    1.0000 0.37511  0.33687  0.50143  Biso   1.000  O 
  H211     1.0000 0.37511  0.25420  0.50143  Biso   1.000  H 
  H212     1.0000 0.37522  0.31669  0.50139  Biso   1.000  H 
  O2757    1.0000 0.48942  0.36585  0.58826  Biso   1.000  O 
  O2758    1.0000 0.34286  0.36585  0.58661  Biso   1.000  O 
  O2759    1.0000 0.41805  0.36585  0.60051  Biso   1.000  O 
  O2760    1.0000 0.38580  0.30335  0.57726  Biso   1.000  O 
  O2761    1.0000 0.28236  0.30335  0.57891  Biso   1.000  O 
  O2762    1.0000 0.45717  0.30335  0.56500  Biso   1.000  O 
  O2763    1.0000 0.38580  0.25842  0.57726  Biso   1.000  O 
  O2764    1.0000 0.28236  0.25842  0.57891  Biso   1.000  O 
  O2765    1.0000 0.45717  0.25842  0.56500  Biso   1.000  O 
  O2766    1.0000 0.48942  0.32093  0.58826  Biso   1.000  O 
  O2767    1.0000 0.34286  0.32093  0.58661  Biso   1.000  O 
  O2768    1.0000 0.41805  0.32093  0.60051  Biso   1.000  O 
  Ca1061   1.0000 0.41678  0.37445  0.55565  Biso   1.000  Ca
  Ca1062   1.0000 0.33344  0.31196  0.55565  Biso   1.000  Ca
  Ca1063   1.0000 0.33344  0.37482  0.55565  Biso   1.000  Ca
  Ca1064   1.0000 0.41678  0.31231  0.55565  Biso   1.000  Ca
  Ca1065   1.0000 0.47006  0.34338  0.56941  Biso   1.000  Ca
  P637     1.0000 0.49636  0.34338  0.59725  Biso   1.000  P 
  O2769    1.0000 0.35984  0.34338  0.55847  Biso   1.000  O 
  O2770    1.0000 0.26963  0.34338  0.59978  Biso   1.000  O 
  Ca1066   1.0000 0.37429  0.34338  0.58343  Biso   1.000  Ca
  P638     1.0000 0.32904  0.34338  0.58662  Biso   1.000  P 
  O2771    1.0000 0.31700  0.34338  0.57141  Biso   1.000  O 
  O2772    1.0000 0.31449  0.34338  0.60050  Biso   1.000  O 
  Ca1067   1.0000 0.28099  0.34338  0.56834  Biso   1.000  Ca
  P639     1.0000 0.42495  0.34338  0.59151  Biso   1.000  P 
  O2773    1.0000 0.44850  0.34338  0.59129  Biso   1.000  O 
  O2774    1.0000 0.41622  0.34338  0.57511  Biso   1.000  O 
  Ca1068   1.0000 0.40518  0.28089  0.59611  Biso   1.000  Ca
  P640     1.0000 0.37886  0.28089  0.56827  Biso   1.000  P 
  O2775    1.0000 0.26539  0.28089  0.60705  Biso   1.000  O 
  O2776    1.0000 0.35560  0.28089  0.56574  Biso   1.000  O 
  Ca1069   1.0000 0.25093  0.28089  0.58208  Biso   1.000  Ca
  P641     1.0000 0.29619  0.28089  0.57890  Biso   1.000  P 
  O2777    1.0000 0.30822  0.28089  0.59411  Biso   1.000  O 
  O2778    1.0000 0.31073  0.28089  0.56502  Biso   1.000  O 
  Ca1070   1.0000 0.34422  0.28089  0.59719  Biso   1.000  Ca
  P642     1.0000 0.45028  0.28089  0.57400  Biso   1.000  P 
  O2779    1.0000 0.42672  0.28089  0.57423  Biso   1.000  O 
  O2780    1.0000 0.45900  0.28089  0.59041  Biso   1.000  O 
  O2781    1.0000 0.25011  0.27438  0.55565  Biso   1.000  O 
  O2782    1.0000 0.25011  0.33687  0.55565  Biso   1.000  O 
  H213     1.0000 0.25011  0.25420  0.55565  Biso   1.000  H 
  H214     1.0000 0.25022  0.31669  0.55561  Biso   1.000  H 
  O2783    1.0000 0.36442  0.36585  0.64248  Biso   1.000  O 
  O2784    1.0000 0.46786  0.36585  0.64083  Biso   1.000  O 
  O2785    1.0000 0.29305  0.36585  0.65473  Biso   1.000  O 
  O2786    1.0000 0.26080  0.30335  0.63147  Biso   1.000  O 
  O2787    1.0000 0.40736  0.30335  0.63313  Biso   1.000  O 
  O2788    1.0000 0.33217  0.30335  0.61922  Biso   1.000  O 
  O2789    1.0000 0.26080  0.25842  0.63147  Biso   1.000  O 
  O2790    1.0000 0.40736  0.25842  0.63313  Biso   1.000  O 
  O2791    1.0000 0.33217  0.25842  0.61922  Biso   1.000  O 
  O2792    1.0000 0.36442  0.32093  0.64248  Biso   1.000  O 
  O2793    1.0000 0.46786  0.32093  0.64083  Biso   1.000  O 
  O2794    1.0000 0.29305  0.32093  0.65473  Biso   1.000  O 
  Ca1071   1.0000 0.29178  0.37445  0.60986  Biso   1.000  Ca
  Ca1072   1.0000 0.45844  0.31196  0.60987  Biso   1.000  Ca
  Ca1073   1.0000 0.45844  0.37482  0.60987  Biso   1.000  Ca
  Ca1074   1.0000 0.29178  0.31231  0.60986  Biso   1.000  Ca
  Ca1075   1.0000 0.34506  0.34338  0.62363  Biso   1.000  Ca
  P643     1.0000 0.37136  0.34338  0.65147  Biso   1.000  P 
  O2795    1.0000 0.48484  0.34338  0.61269  Biso   1.000  O 
  O2796    1.0000 0.39463  0.34338  0.65400  Biso   1.000  O 
  Ca1076   1.0000 0.49929  0.34338  0.63765  Biso   1.000  Ca
  P644     1.0000 0.45404  0.34338  0.64084  Biso   1.000  P 
  O2797    1.0000 0.44200  0.34338  0.62563  Biso   1.000  O 
  O2798    1.0000 0.43949  0.34338  0.65471  Biso   1.000  O 
  Ca1077   1.0000 0.40599  0.34338  0.62255  Biso   1.000  Ca
  P645     1.0000 0.29995  0.34338  0.64573  Biso   1.000  P 
  O2799    1.0000 0.32350  0.34338  0.64551  Biso   1.000  O 
  O2800    1.0000 0.29122  0.34338  0.62933  Biso   1.000  O 
  Ca1078   1.0000 0.28018  0.28089  0.65033  Biso   1.000  Ca
  P646     1.0000 0.25386  0.28089  0.62248  Biso   1.000  P 
  O2801    1.0000 0.39039  0.28089  0.66127  Biso   1.000  O 
  O2802    1.0000 0.48060  0.28089  0.61996  Biso   1.000  O 
  Ca1079   1.0000 0.37593  0.28089  0.63630  Biso   1.000  Ca
  P647     1.0000 0.42119  0.28089  0.63312  Biso   1.000  P 
  O2803    1.0000 0.43322  0.28089  0.64833  Biso   1.000  O 
  O2804    1.0000 0.43573  0.28089  0.61924  Biso   1.000  O 
  Ca1080   1.0000 0.46922  0.28089  0.65141  Biso   1.000  Ca
  P648     1.0000 0.32528  0.28089  0.62822  Biso   1.000  P 
  O2805    1.0000 0.30172  0.28089  0.62845  Biso   1.000  O 
  O2806    1.0000 0.33400  0.28089  0.64462  Biso   1.000  O 
  O2807    1.0000 0.37511  0.27438  0.60987  Biso   1.000  O 
  O2808    1.0000 0.37511  0.33687  0.60987  Biso   1.000  O 
  H215     1.0000 0.37511  0.25420  0.60987  Biso   1.000  H 
  H216     1.0000 0.37522  0.31669  0.60982  Biso   1.000  H 
  O2809    1.0000 0.48942  0.36585  0.69670  Biso   1.000  O 
  O2810    1.0000 0.34286  0.36585  0.69504  Biso   1.000  O 
  O2811    1.0000 0.41805  0.36585  0.70895  Biso   1.000  O 
  O2812    1.0000 0.38580  0.30335  0.68569  Biso   1.000  O 
  O2813    1.0000 0.28236  0.30335  0.68734  Biso   1.000  O 
  O2814    1.0000 0.45717  0.30335  0.67344  Biso   1.000  O 
  O2815    1.0000 0.38580  0.25842  0.68569  Biso   1.000  O 
  O2816    1.0000 0.28236  0.25842  0.68734  Biso   1.000  O 
  O2817    1.0000 0.45717  0.25842  0.67344  Biso   1.000  O 
  O2818    1.0000 0.48942  0.32093  0.69670  Biso   1.000  O 
  O2819    1.0000 0.34286  0.32093  0.69504  Biso   1.000  O 
  O2820    1.0000 0.41805  0.32093  0.70895  Biso   1.000  O 
  Ca1081   1.0000 0.41678  0.37445  0.66408  Biso   1.000  Ca
  Ca1082   1.0000 0.33344  0.31196  0.66409  Biso   1.000  Ca
  Ca1083   1.0000 0.33344  0.37482  0.66409  Biso   1.000  Ca
  Ca1084   1.0000 0.41678  0.31231  0.66408  Biso   1.000  Ca
  Ca1085   1.0000 0.47006  0.34338  0.67784  Biso   1.000  Ca
  P649     1.0000 0.49636  0.34338  0.70569  Biso   1.000  P 
  O2821    1.0000 0.35984  0.34338  0.66691  Biso   1.000  O 
  O2822    1.0000 0.26963  0.34338  0.70822  Biso   1.000  O 
  Ca1086   1.0000 0.37429  0.34338  0.69187  Biso   1.000  Ca
  P650     1.0000 0.32904  0.34338  0.69506  Biso   1.000  P 
  O2823    1.0000 0.31700  0.34338  0.67985  Biso   1.000  O 
  O2824    1.0000 0.31449  0.34338  0.70893  Biso   1.000  O 
  Ca1087   1.0000 0.28099  0.34338  0.67677  Biso   1.000  Ca
  P651     1.0000 0.42495  0.34338  0.69995  Biso   1.000  P 
  O2825    1.0000 0.44850  0.34338  0.69973  Biso   1.000  O 
  O2826    1.0000 0.41622  0.34338  0.68355  Biso   1.000  O 
  Ca1088   1.0000 0.40518  0.28089  0.70455  Biso   1.000  Ca
  P652     1.0000 0.37886  0.28089  0.67670  Biso   1.000  P 
  O2827    1.0000 0.26539  0.28089  0.71548  Biso   1.000  O 
  O2828    1.0000 0.35560  0.28089  0.67418  Biso   1.000  O 
  Ca1089   1.0000 0.25093  0.28089  0.69052  Biso   1.000  Ca
  P653     1.0000 0.29619  0.28089  0.68733  Biso   1.000  P 
  O2829    1.0000 0.30822  0.28089  0.70255  Biso   1.000  O 
  O2830    1.0000 0.31073  0.28089  0.67346  Biso   1.000  O 
  Ca1090   1.0000 0.34422  0.28089  0.70563  Biso   1.000  Ca
  P654     1.0000 0.45028  0.28089  0.68244  Biso   1.000  P 
  O2831    1.0000 0.42672  0.28089  0.68266  Biso   1.000  O 
  O2832    1.0000 0.45900  0.28089  0.69884  Biso   1.000  O 
  O2833    1.0000 0.25011  0.27438  0.66409  Biso   1.000  O 
  O2834    1.0000 0.25011  0.33687  0.66409  Biso   1.000  O 
  H217     1.0000 0.25011  0.25420  0.66409  Biso   1.000  H 
  H218     1.0000 0.25022  0.31669  0.66404  Biso   1.000  H 
  O2835    1.0000 0.36442  0.36585  0.75091  Biso   1.000  O 
  O2836    1.0000 0.46786  0.36585  0.74926  Biso   1.000  O 
  O2837    1.0000 0.29305  0.36585  0.76317  Biso   1.000  O 
  O2838    1.0000 0.26080  0.30335  0.73991  Biso   1.000  O 
  O2839    1.0000 0.40736  0.30335  0.74156  Biso   1.000  O 
  O2840    1.0000 0.33217  0.30335  0.72766  Biso   1.000  O 
  O2841    1.0000 0.26080  0.25842  0.73991  Biso   1.000  O 
  O2842    1.0000 0.40736  0.25842  0.74156  Biso   1.000  O 
  O2843    1.0000 0.33217  0.25842  0.72766  Biso   1.000  O 
  O2844    1.0000 0.36442  0.32093  0.75091  Biso   1.000  O 
  O2845    1.0000 0.46786  0.32093  0.74926  Biso   1.000  O 
  O2846    1.0000 0.29305  0.32093  0.76317  Biso   1.000  O 
  Ca1091   1.0000 0.29178  0.37445  0.71830  Biso   1.000  Ca
  Ca1092   1.0000 0.45844  0.31196  0.71831  Biso   1.000  Ca
  Ca1093   1.0000 0.45844  0.37482  0.71831  Biso   1.000  Ca
  Ca1094   1.0000 0.29178  0.31231  0.71830  Biso   1.000  Ca
  Ca1095   1.0000 0.34506  0.34338  0.73206  Biso   1.000  Ca
  P655     1.0000 0.37136  0.34338  0.75990  Biso   1.000  P 
  O2847    1.0000 0.48484  0.34338  0.72113  Biso   1.000  O 
  O2848    1.0000 0.39463  0.34338  0.76243  Biso   1.000  O 
  Ca1096   1.0000 0.49929  0.34338  0.74609  Biso   1.000  Ca
  P656     1.0000 0.45404  0.34338  0.74928  Biso   1.000  P 
  O2849    1.0000 0.44200  0.34338  0.73407  Biso   1.000  O 
  O2850    1.0000 0.43949  0.34338  0.76315  Biso   1.000  O 
  Ca1097   1.0000 0.40599  0.34338  0.73099  Biso   1.000  Ca
  P657     1.0000 0.29995  0.34338  0.75417  Biso   1.000  P 
  O2851    1.0000 0.32350  0.34338  0.75394  Biso   1.000  O 
  O2852    1.0000 0.29122  0.34338  0.73776  Biso   1.000  O 
  Ca1098   1.0000 0.28018  0.28089  0.75877  Biso   1.000  Ca
  P658     1.0000 0.25386  0.28089  0.73092  Biso   1.000  P 
  O2853    1.0000 0.39039  0.28089  0.76970  Biso   1.000  O 
  O2854    1.0000 0.48060  0.28089  0.72840  Biso   1.000  O 
  Ca1099   1.0000 0.37593  0.28089  0.74474  Biso   1.000  Ca
  P659     1.0000 0.42119  0.28089  0.74155  Biso   1.000  P 
  O2855    1.0000 0.43322  0.28089  0.75677  Biso   1.000  O 
  O2856    1.0000 0.43573  0.28089  0.72767  Biso   1.000  O 
  Ca1100   1.0000 0.46922  0.28089  0.75984  Biso   1.000  Ca
  P660     1.0000 0.32528  0.28089  0.73666  Biso   1.000  P 
  O2857    1.0000 0.30172  0.28089  0.73688  Biso   1.000  O 
  O2858    1.0000 0.33400  0.28089  0.75306  Biso   1.000  O 
  O2859    1.0000 0.37511  0.27438  0.71831  Biso   1.000  O 
  O2860    1.0000 0.37511  0.33687  0.71831  Biso   1.000  O 
  H219     1.0000 0.37511  0.25420  0.71831  Biso   1.000  H 
  H220     1.0000 0.37522  0.31669  0.71826  Biso   1.000  H 
  O2861    1.0000 0.48942  0.49085  0.26295  Biso   1.000  O 
  O2862    1.0000 0.34286  0.49085  0.26130  Biso   1.000  O 
  O2863    1.0000 0.41805  0.49085  0.27520  Biso   1.000  O 
  O2864    1.0000 0.38580  0.42835  0.25195  Biso   1.000  O 
  O2865    1.0000 0.28236  0.42835  0.25360  Biso   1.000  O 
  O2866    1.0000 0.45717  0.42835  0.23970  Biso   1.000  O 
  O2867    1.0000 0.38580  0.38342  0.25195  Biso   1.000  O 
  O2868    1.0000 0.28236  0.38342  0.25360  Biso   1.000  O 
  O2869    1.0000 0.45717  0.38342  0.23970  Biso   1.000  O 
  O2870    1.0000 0.48942  0.44593  0.26295  Biso   1.000  O 
  O2871    1.0000 0.34286  0.44593  0.26130  Biso   1.000  O 
  O2872    1.0000 0.41805  0.44593  0.27520  Biso   1.000  O 
  Ca1101   1.0000 0.41678  0.49945  0.23034  Biso   1.000  Ca
  Ca1102   1.0000 0.33344  0.43696  0.23035  Biso   1.000  Ca
  Ca1103   1.0000 0.33344  0.49982  0.23035  Biso   1.000  Ca
  Ca1104   1.0000 0.41678  0.43731  0.23034  Biso   1.000  Ca
  Ca1105   1.0000 0.47006  0.46838  0.24410  Biso   1.000  Ca
  P661     1.0000 0.49636  0.46838  0.27194  Biso   1.000  P 
  O2873    1.0000 0.35984  0.46838  0.23317  Biso   1.000  O 
  O2874    1.0000 0.26963  0.46838  0.27447  Biso   1.000  O 
  Ca1106   1.0000 0.37429  0.46838  0.25813  Biso   1.000  Ca
  P662     1.0000 0.32904  0.46838  0.26132  Biso   1.000  P 
  O2875    1.0000 0.31700  0.46838  0.24611  Biso   1.000  O 
  O2876    1.0000 0.31449  0.46838  0.27519  Biso   1.000  O 
  Ca1107   1.0000 0.28099  0.46838  0.24303  Biso   1.000  Ca
  P663     1.0000 0.42495  0.46838  0.26620  Biso   1.000  P 
  O2877    1.0000 0.44850  0.46838  0.26598  Biso   1.000  O 
  O2878    1.0000 0.41622  0.46838  0.24980  Biso   1.000  O 
  Ca1108   1.0000 0.40518  0.40589  0.27081  Biso   1.000  Ca
  P664     1.0000 0.37886  0.40589  0.24296  Biso   1.000  P 
  O2879    1.0000 0.26539  0.40589  0.28174  Biso   1.000  O 
  O2880    1.0000 0.35560  0.40589  0.24043  Biso   1.000  O 
  Ca1109   1.0000 0.25093  0.40589  0.25677  Biso   1.000  Ca
  P665     1.0000 0.29619  0.40589  0.25359  Biso   1.000  P 
  O2881    1.0000 0.30822  0.40589  0.26880  Biso   1.000  O 
  O2882    1.0000 0.31073  0.40589  0.23971  Biso   1.000  O 
  Ca1110   1.0000 0.34422  0.40589  0.27188  Biso   1.000  Ca
  P666     1.0000 0.45028  0.40589  0.24870  Biso   1.000  P 
  O2883    1.0000 0.42672  0.40589  0.24892  Biso   1.000  O 
  O2884    1.0000 0.45900  0.40589  0.26510  Biso   1.000  O 
  O2885    1.0000 0.25011  0.39938  0.23034  Biso   1.000  O 
  O2886    1.0000 0.25011  0.46187  0.23034  Biso   1.000  O 
  H221     1.0000 0.25011  0.37920  0.23034  Biso   1.000  H 
  H222     1.0000 0.25022  0.44169  0.23030  Biso   1.000  H 
  O2887    1.0000 0.36442  0.49085  0.31717  Biso   1.000  O 
  O2888    1.0000 0.46786  0.49085  0.31552  Biso   1.000  O 
  O2889    1.0000 0.29305  0.49085  0.32942  Biso   1.000  O 
  O2890    1.0000 0.26080  0.42835  0.30617  Biso   1.000  O 
  O2891    1.0000 0.40736  0.42835  0.30782  Biso   1.000  O 
  O2892    1.0000 0.33217  0.42835  0.29391  Biso   1.000  O 
  O2893    1.0000 0.26080  0.38342  0.30617  Biso   1.000  O 
  O2894    1.0000 0.40736  0.38342  0.30782  Biso   1.000  O 
  O2895    1.0000 0.33217  0.38342  0.29391  Biso   1.000  O 
  O2896    1.0000 0.36442  0.44593  0.31717  Biso   1.000  O 
  O2897    1.0000 0.46786  0.44593  0.31552  Biso   1.000  O 
  O2898    1.0000 0.29305  0.44593  0.32942  Biso   1.000  O 
  Ca1111   1.0000 0.29178  0.49945  0.28456  Biso   1.000  Ca
  Ca1112   1.0000 0.45844  0.43696  0.28456  Biso   1.000  Ca
  Ca1113   1.0000 0.45844  0.49982  0.28456  Biso   1.000  Ca
  Ca1114   1.0000 0.29178  0.43731  0.28456  Biso   1.000  Ca
  Ca1115   1.0000 0.34506  0.46838  0.29832  Biso   1.000  Ca
  P667     1.0000 0.37136  0.46838  0.32616  Biso   1.000  P 
  O2899    1.0000 0.48484  0.46838  0.28738  Biso   1.000  O 
  O2900    1.0000 0.39463  0.46838  0.32869  Biso   1.000  O 
  Ca1116   1.0000 0.49929  0.46838  0.31234  Biso   1.000  Ca
  P668     1.0000 0.45404  0.46838  0.31554  Biso   1.000  P 
  O2901    1.0000 0.44200  0.46838  0.30033  Biso   1.000  O 
  O2902    1.0000 0.43949  0.46838  0.32941  Biso   1.000  O 
  Ca1117   1.0000 0.40599  0.46838  0.29725  Biso   1.000  Ca
  P669     1.0000 0.29995  0.46838  0.32042  Biso   1.000  P 
  O2903    1.0000 0.32350  0.46838  0.32020  Biso   1.000  O 
  O2904    1.0000 0.29122  0.46838  0.30402  Biso   1.000  O 
  Ca1118   1.0000 0.28018  0.40589  0.32502  Biso   1.000  Ca
  P670     1.0000 0.25386  0.40589  0.29718  Biso   1.000  P 
  O2905    1.0000 0.39039  0.40589  0.33596  Biso   1.000  O 
  O2906    1.0000 0.48060  0.40589  0.29465  Biso   1.000  O 
  Ca1119   1.0000 0.37593  0.40589  0.31099  Biso   1.000  Ca
  P671     1.0000 0.42119  0.40589  0.30781  Biso   1.000  P 
  O2907    1.0000 0.43322  0.40589  0.32302  Biso   1.000  O 
  O2908    1.0000 0.43573  0.40589  0.29393  Biso   1.000  O 
  Ca1120   1.0000 0.46922  0.40589  0.32610  Biso   1.000  Ca
  P672     1.0000 0.32528  0.40589  0.30291  Biso   1.000  P 
  O2909    1.0000 0.30172  0.40589  0.30314  Biso   1.000  O 
  O2910    1.0000 0.33400  0.40589  0.31932  Biso   1.000  O 
  O2911    1.0000 0.37511  0.39938  0.28456  Biso   1.000  O 
  O2912    1.0000 0.37511  0.46187  0.28456  Biso   1.000  O 
  H223     1.0000 0.37511  0.37920  0.28456  Biso   1.000  H 
  H224     1.0000 0.37522  0.44169  0.28452  Biso   1.000  H 
  O2913    1.0000 0.48942  0.49085  0.37139  Biso   1.000  O 
  O2914    1.0000 0.34286  0.49085  0.36974  Biso   1.000  O 
  O2915    1.0000 0.41805  0.49085  0.38364  Biso   1.000  O 
  O2916    1.0000 0.38580  0.42835  0.36038  Biso   1.000  O 
  O2917    1.0000 0.28236  0.42835  0.36204  Biso   1.000  O 
  O2918    1.0000 0.45717  0.42835  0.34813  Biso   1.000  O 
  O2919    1.0000 0.38580  0.38342  0.36038  Biso   1.000  O 
  O2920    1.0000 0.28236  0.38342  0.36204  Biso   1.000  O 
  O2921    1.0000 0.45717  0.38342  0.34813  Biso   1.000  O 
  O2922    1.0000 0.48942  0.44593  0.37139  Biso   1.000  O 
  O2923    1.0000 0.34286  0.44593  0.36974  Biso   1.000  O 
  O2924    1.0000 0.41805  0.44593  0.38364  Biso   1.000  O 
  Ca1121   1.0000 0.41678  0.49945  0.33877  Biso   1.000  Ca
  Ca1122   1.0000 0.33344  0.43696  0.33878  Biso   1.000  Ca
  Ca1123   1.0000 0.33344  0.49982  0.33878  Biso   1.000  Ca
  Ca1124   1.0000 0.41678  0.43731  0.33877  Biso   1.000  Ca
  Ca1125   1.0000 0.47006  0.46838  0.35254  Biso   1.000  Ca
  P673     1.0000 0.49636  0.46838  0.38038  Biso   1.000  P 
  O2925    1.0000 0.35984  0.46838  0.34160  Biso   1.000  O 
  O2926    1.0000 0.26963  0.46838  0.38291  Biso   1.000  O 
  Ca1126   1.0000 0.37429  0.46838  0.36656  Biso   1.000  Ca
  P674     1.0000 0.32904  0.46838  0.36975  Biso   1.000  P 
  O2927    1.0000 0.31700  0.46838  0.35454  Biso   1.000  O 
  O2928    1.0000 0.31449  0.46838  0.38362  Biso   1.000  O 
  Ca1127   1.0000 0.28099  0.46838  0.35146  Biso   1.000  Ca
  P675     1.0000 0.42495  0.46838  0.37464  Biso   1.000  P 
  O2929    1.0000 0.44850  0.46838  0.37442  Biso   1.000  O 
  O2930    1.0000 0.41622  0.46838  0.35824  Biso   1.000  O 
  Ca1128   1.0000 0.40518  0.40589  0.37924  Biso   1.000  Ca
  P676     1.0000 0.37886  0.40589  0.35140  Biso   1.000  P 
  O2931    1.0000 0.26539  0.40589  0.39018  Biso   1.000  O 
  O2932    1.0000 0.35560  0.40589  0.34887  Biso   1.000  O 
  Ca1129   1.0000 0.25093  0.40589  0.36521  Biso   1.000  Ca
  P677     1.0000 0.29619  0.40589  0.36203  Biso   1.000  P 
  O2933    1.0000 0.30822  0.40589  0.37724  Biso   1.000  O 
  O2934    1.0000 0.31073  0.40589  0.34815  Biso   1.000  O 
  Ca1130   1.0000 0.34422  0.40589  0.38032  Biso   1.000  Ca
  P678     1.0000 0.45028  0.40589  0.35713  Biso   1.000  P 
  O2935    1.0000 0.42672  0.40589  0.35736  Biso   1.000  O 
  O2936    1.0000 0.45900  0.40589  0.37353  Biso   1.000  O 
  O2937    1.0000 0.25011  0.39938  0.33878  Biso   1.000  O 
  O2938    1.0000 0.25011  0.46187  0.33878  Biso   1.000  O 
  H225     1.0000 0.25011  0.37920  0.33878  Biso   1.000  H 
  H226     1.0000 0.25022  0.44169  0.33873  Biso   1.000  H 
  O2939    1.0000 0.36442  0.49085  0.42561  Biso   1.000  O 
  O2940    1.0000 0.46786  0.49085  0.42395  Biso   1.000  O 
  O2941    1.0000 0.29305  0.49085  0.43786  Biso   1.000  O 
  O2942    1.0000 0.26080  0.42835  0.41460  Biso   1.000  O 
  O2943    1.0000 0.40736  0.42835  0.41625  Biso   1.000  O 
  O2944    1.0000 0.33217  0.42835  0.40235  Biso   1.000  O 
  O2945    1.0000 0.26080  0.38342  0.41460  Biso   1.000  O 
  O2946    1.0000 0.40736  0.38342  0.41625  Biso   1.000  O 
  O2947    1.0000 0.33217  0.38342  0.40235  Biso   1.000  O 
  O2948    1.0000 0.36442  0.44593  0.42561  Biso   1.000  O 
  O2949    1.0000 0.46786  0.44593  0.42395  Biso   1.000  O 
  O2950    1.0000 0.29305  0.44593  0.43786  Biso   1.000  O 
  Ca1131   1.0000 0.29178  0.49945  0.39299  Biso   1.000  Ca
  Ca1132   1.0000 0.45844  0.43696  0.39300  Biso   1.000  Ca
  Ca1133   1.0000 0.45844  0.49982  0.39300  Biso   1.000  Ca
  Ca1134   1.0000 0.29178  0.43731  0.39299  Biso   1.000  Ca
  Ca1135   1.0000 0.34506  0.46838  0.40675  Biso   1.000  Ca
  P679     1.0000 0.37136  0.46838  0.43460  Biso   1.000  P 
  O2951    1.0000 0.48484  0.46838  0.39582  Biso   1.000  O 
  O2952    1.0000 0.39463  0.46838  0.43713  Biso   1.000  O 
  Ca1136   1.0000 0.49929  0.46838  0.42078  Biso   1.000  Ca
  P680     1.0000 0.45404  0.46838  0.42397  Biso   1.000  P 
  O2953    1.0000 0.44200  0.46838  0.40876  Biso   1.000  O 
  O2954    1.0000 0.43949  0.46838  0.43784  Biso   1.000  O 
  Ca1137   1.0000 0.40599  0.46838  0.40568  Biso   1.000  Ca
  P681     1.0000 0.29995  0.46838  0.42886  Biso   1.000  P 
  O2955    1.0000 0.32350  0.46838  0.42864  Biso   1.000  O 
  O2956    1.0000 0.29122  0.46838  0.41246  Biso   1.000  O 
  Ca1138   1.0000 0.28018  0.40589  0.43346  Biso   1.000  Ca
  P682     1.0000 0.25386  0.40589  0.40561  Biso   1.000  P 
  O2957    1.0000 0.39039  0.40589  0.44439  Biso   1.000  O 
  O2958    1.0000 0.48060  0.40589  0.40309  Biso   1.000  O 
  Ca1139   1.0000 0.37593  0.40589  0.41943  Biso   1.000  Ca
  P683     1.0000 0.42119  0.40589  0.41624  Biso   1.000  P 
  O2959    1.0000 0.43322  0.40589  0.43146  Biso   1.000  O 
  O2960    1.0000 0.43573  0.40589  0.40237  Biso   1.000  O 
  Ca1140   1.0000 0.46922  0.40589  0.43454  Biso   1.000  Ca
  P684     1.0000 0.32528  0.40589  0.41135  Biso   1.000  P 
  O2961    1.0000 0.30172  0.40589  0.41157  Biso   1.000  O 
  O2962    1.0000 0.33400  0.40589  0.42775  Biso   1.000  O 
  O2963    1.0000 0.37511  0.39938  0.39300  Biso   1.000  O 
  O2964    1.0000 0.37511  0.46187  0.39300  Biso   1.000  O 
  H227     1.0000 0.37511  0.37920  0.39300  Biso   1.000  H 
  H228     1.0000 0.37522  0.44169  0.39295  Biso   1.000  H 
  O2965    1.0000 0.48942  0.49085  0.47982  Biso   1.000  O 
  O2966    1.0000 0.34286  0.49085  0.47817  Biso   1.000  O 
  O2967    1.0000 0.41805  0.49085  0.49208  Biso   1.000  O 
  O2968    1.0000 0.38580  0.42835  0.46882  Biso   1.000  O 
  O2969    1.0000 0.28236  0.42835  0.47047  Biso   1.000  O 
  O2970    1.0000 0.45717  0.42835  0.45657  Biso   1.000  O 
  O2971    1.0000 0.38580  0.38342  0.46882  Biso   1.000  O 
  O2972    1.0000 0.28236  0.38342  0.47047  Biso   1.000  O 
  O2973    1.0000 0.45717  0.38342  0.45657  Biso   1.000  O 
  O2974    1.0000 0.48942  0.44593  0.47982  Biso   1.000  O 
  O2975    1.0000 0.34286  0.44593  0.47817  Biso   1.000  O 
  O2976    1.0000 0.41805  0.44593  0.49208  Biso   1.000  O 
  Ca1141   1.0000 0.41678  0.49945  0.44721  Biso   1.000  Ca
  Ca1142   1.0000 0.33344  0.43696  0.44722  Biso   1.000  Ca
  Ca1143   1.0000 0.33344  0.49982  0.44722  Biso   1.000  Ca
  Ca1144   1.0000 0.41678  0.43731  0.44721  Biso   1.000  Ca
  Ca1145   1.0000 0.47006  0.46838  0.46097  Biso   1.000  Ca
  P685     1.0000 0.49636  0.46838  0.48881  Biso   1.000  P 
  O2977    1.0000 0.35984  0.46838  0.45004  Biso   1.000  O 
  O2978    1.0000 0.26963  0.46838  0.49134  Biso   1.000  O 
  Ca1146   1.0000 0.37429  0.46838  0.47500  Biso   1.000  Ca
  P686     1.0000 0.32904  0.46838  0.47819  Biso   1.000  P 
  O2979    1.0000 0.31700  0.46838  0.46298  Biso   1.000  O 
  O2980    1.0000 0.31449  0.46838  0.49206  Biso   1.000  O 
  Ca1147   1.0000 0.28099  0.46838  0.45990  Biso   1.000  Ca
  P687     1.0000 0.42495  0.46838  0.48308  Biso   1.000  P 
  O2981    1.0000 0.44850  0.46838  0.48285  Biso   1.000  O 
  O2982    1.0000 0.41622  0.46838  0.46667  Biso   1.000  O 
  Ca1148   1.0000 0.40518  0.40589  0.48768  Biso   1.000  Ca
  P688     1.0000 0.37886  0.40589  0.45983  Biso   1.000  P 
  O2983    1.0000 0.26539  0.40589  0.49861  Biso   1.000  O 
  O2984    1.0000 0.35560  0.40589  0.45731  Biso   1.000  O 
  Ca1149   1.0000 0.25093  0.40589  0.47365  Biso   1.000  Ca
  P689     1.0000 0.29619  0.40589  0.47046  Biso   1.000  P 
  O2985    1.0000 0.30822  0.40589  0.48568  Biso   1.000  O 
  O2986    1.0000 0.31073  0.40589  0.45658  Biso   1.000  O 
  Ca1150   1.0000 0.34422  0.40589  0.48875  Biso   1.000  Ca
  P690     1.0000 0.45028  0.40589  0.46557  Biso   1.000  P 
  O2987    1.0000 0.42672  0.40589  0.46579  Biso   1.000  O 
  O2988    1.0000 0.45900  0.40589  0.48197  Biso   1.000  O 
  O2989    1.0000 0.25011  0.39938  0.44722  Biso   1.000  O 
  O2990    1.0000 0.25011  0.46187  0.44722  Biso   1.000  O 
  H229     1.0000 0.25011  0.37920  0.44722  Biso   1.000  H 
  H230     1.0000 0.25022  0.44169  0.44717  Biso   1.000  H 
  O2991    1.0000 0.36442  0.49085  0.53404  Biso   1.000  O 
  O2992    1.0000 0.46786  0.49085  0.53239  Biso   1.000  O 
  O2993    1.0000 0.29305  0.49085  0.54629  Biso   1.000  O 
  O2994    1.0000 0.26080  0.42835  0.52304  Biso   1.000  O 
  O2995    1.0000 0.40736  0.42835  0.52469  Biso   1.000  O 
  O2996    1.0000 0.33217  0.42835  0.51079  Biso   1.000  O 
  O2997    1.0000 0.26080  0.38342  0.52304  Biso   1.000  O 
  O2998    1.0000 0.40736  0.38342  0.52469  Biso   1.000  O 
  O2999    1.0000 0.33217  0.38342  0.51079  Biso   1.000  O 
  O3000    1.0000 0.36442  0.44593  0.53404  Biso   1.000  O 
  O3001    1.0000 0.46786  0.44593  0.53239  Biso   1.000  O 
  O3002    1.0000 0.29305  0.44593  0.54629  Biso   1.000  O 
  Ca1151   1.0000 0.29178  0.49945  0.50143  Biso   1.000  Ca
  Ca1152   1.0000 0.45844  0.43696  0.50144  Biso   1.000  Ca
  Ca1153   1.0000 0.45844  0.49982  0.50144  Biso   1.000  Ca
  Ca1154   1.0000 0.29178  0.43731  0.50143  Biso   1.000  Ca
  Ca1155   1.0000 0.34506  0.46838  0.51519  Biso   1.000  Ca
  P691     1.0000 0.37136  0.46838  0.54303  Biso   1.000  P 
  O3003    1.0000 0.48484  0.46838  0.50426  Biso   1.000  O 
  O3004    1.0000 0.39463  0.46838  0.54556  Biso   1.000  O 
  Ca1156   1.0000 0.49929  0.46838  0.52922  Biso   1.000  Ca
  P692     1.0000 0.45404  0.46838  0.53241  Biso   1.000  P 
  O3005    1.0000 0.44200  0.46838  0.51720  Biso   1.000  O 
  O3006    1.0000 0.43949  0.46838  0.54628  Biso   1.000  O 
  Ca1157   1.0000 0.40599  0.46838  0.51412  Biso   1.000  Ca
  P693     1.0000 0.29995  0.46838  0.53729  Biso   1.000  P 
  O3007    1.0000 0.32350  0.46838  0.53707  Biso   1.000  O 
  O3008    1.0000 0.29122  0.46838  0.52089  Biso   1.000  O 
  Ca1158   1.0000 0.28018  0.40589  0.54190  Biso   1.000  Ca
  P694     1.0000 0.25386  0.40589  0.51405  Biso   1.000  P 
  O3009    1.0000 0.39039  0.40589  0.55283  Biso   1.000  O 
  O3010    1.0000 0.48060  0.40589  0.51152  Biso   1.000  O 
  Ca1159   1.0000 0.37593  0.40589  0.52786  Biso   1.000  Ca
  P695     1.0000 0.42119  0.40589  0.52468  Biso   1.000  P 
  O3011    1.0000 0.43322  0.40589  0.53989  Biso   1.000  O 
  O3012    1.0000 0.43573  0.40589  0.51080  Biso   1.000  O 
  Ca1160   1.0000 0.46922  0.40589  0.54297  Biso   1.000  Ca
  P696     1.0000 0.32528  0.40589  0.51979  Biso   1.000  P 
  O3013    1.0000 0.30172  0.40589  0.52001  Biso   1.000  O 
  O3014    1.0000 0.33400  0.40589  0.53619  Biso   1.000  O 
  O3015    1.0000 0.37511  0.39938  0.50143  Biso   1.000  O 
  O3016    1.0000 0.37511  0.46187  0.50143  Biso   1.000  O 
  H231     1.0000 0.37511  0.37920  0.50143  Biso   1.000  H 
  H232     1.0000 0.37522  0.44169  0.50139  Biso   1.000  H 
  O3017    1.0000 0.48942  0.49085  0.58826  Biso   1.000  O 
  O3018    1.0000 0.34286  0.49085  0.58661  Biso   1.000  O 
  O3019    1.0000 0.41805  0.49085  0.60051  Biso   1.000  O 
  O3020    1.0000 0.38580  0.42835  0.57726  Biso   1.000  O 
  O3021    1.0000 0.28236  0.42835  0.57891  Biso   1.000  O 
  O3022    1.0000 0.45717  0.42835  0.56500  Biso   1.000  O 
  O3023    1.0000 0.38580  0.38342  0.57726  Biso   1.000  O 
  O3024    1.0000 0.28236  0.38342  0.57891  Biso   1.000  O 
  O3025    1.0000 0.45717  0.38342  0.56500  Biso   1.000  O 
  O3026    1.0000 0.48942  0.44593  0.58826  Biso   1.000  O 
  O3027    1.0000 0.34286  0.44593  0.58661  Biso   1.000  O 
  O3028    1.0000 0.41805  0.44593  0.60051  Biso   1.000  O 
  Ca1161   1.0000 0.41678  0.49945  0.55565  Biso   1.000  Ca
  Ca1162   1.0000 0.33344  0.43696  0.55565  Biso   1.000  Ca
  Ca1163   1.0000 0.33344  0.49982  0.55565  Biso   1.000  Ca
  Ca1164   1.0000 0.41678  0.43731  0.55565  Biso   1.000  Ca
  Ca1165   1.0000 0.47006  0.46838  0.56941  Biso   1.000  Ca
  P697     1.0000 0.49636  0.46838  0.59725  Biso   1.000  P 
  O3029    1.0000 0.35984  0.46838  0.55847  Biso   1.000  O 
  O3030    1.0000 0.26963  0.46838  0.59978  Biso   1.000  O 
  Ca1166   1.0000 0.37429  0.46838  0.58343  Biso   1.000  Ca
  P698     1.0000 0.32904  0.46838  0.58662  Biso   1.000  P 
  O3031    1.0000 0.31700  0.46838  0.57141  Biso   1.000  O 
  O3032    1.0000 0.31449  0.46838  0.60050  Biso   1.000  O 
  Ca1167   1.0000 0.28099  0.46838  0.56834  Biso   1.000  Ca
  P699     1.0000 0.42495  0.46838  0.59151  Biso   1.000  P 
  O3033    1.0000 0.44850  0.46838  0.59129  Biso   1.000  O 
  O3034    1.0000 0.41622  0.46838  0.57511  Biso   1.000  O 
  Ca1168   1.0000 0.40518  0.40589  0.59611  Biso   1.000  Ca
  P700     1.0000 0.37886  0.40589  0.56827  Biso   1.000  P 
  O3035    1.0000 0.26539  0.40589  0.60705  Biso   1.000  O 
  O3036    1.0000 0.35560  0.40589  0.56574  Biso   1.000  O 
  Ca1169   1.0000 0.25093  0.40589  0.58208  Biso   1.000  Ca
  P701     1.0000 0.29619  0.40589  0.57890  Biso   1.000  P 
  O3037    1.0000 0.30822  0.40589  0.59411  Biso   1.000  O 
  O3038    1.0000 0.31073  0.40589  0.56502  Biso   1.000  O 
  Ca1170   1.0000 0.34422  0.40589  0.59719  Biso   1.000  Ca
  P702     1.0000 0.45028  0.40589  0.57400  Biso   1.000  P 
  O3039    1.0000 0.42672  0.40589  0.57423  Biso   1.000  O 
  O3040    1.0000 0.45900  0.40589  0.59041  Biso   1.000  O 
  O3041    1.0000 0.25011  0.39938  0.55565  Biso   1.000  O 
  O3042    1.0000 0.25011  0.46187  0.55565  Biso   1.000  O 
  H233     1.0000 0.25011  0.37920  0.55565  Biso   1.000  H 
  H234     1.0000 0.25022  0.44169  0.55561  Biso   1.000  H 
  O3043    1.0000 0.36442  0.49085  0.64248  Biso   1.000  O 
  O3044    1.0000 0.46786  0.49085  0.64083  Biso   1.000  O 
  O3045    1.0000 0.29305  0.49085  0.65473  Biso   1.000  O 
  O3046    1.0000 0.26080  0.42835  0.63147  Biso   1.000  O 
  O3047    1.0000 0.40736  0.42835  0.63313  Biso   1.000  O 
  O3048    1.0000 0.33217  0.42835  0.61922  Biso   1.000  O 
  O3049    1.0000 0.26080  0.38342  0.63147  Biso   1.000  O 
  O3050    1.0000 0.40736  0.38342  0.63313  Biso   1.000  O 
  O3051    1.0000 0.33217  0.38342  0.61922  Biso   1.000  O 
  O3052    1.0000 0.36442  0.44593  0.64248  Biso   1.000  O 
  O3053    1.0000 0.46786  0.44593  0.64083  Biso   1.000  O 
  O3054    1.0000 0.29305  0.44593  0.65473  Biso   1.000  O 
  Ca1171   1.0000 0.29178  0.49945  0.60986  Biso   1.000  Ca
  Ca1172   1.0000 0.45844  0.43696  0.60987  Biso   1.000  Ca
  Ca1173   1.0000 0.45844  0.49982  0.60987  Biso   1.000  Ca
  Ca1174   1.0000 0.29178  0.43731  0.60986  Biso   1.000  Ca
  Ca1175   1.0000 0.34506  0.46838  0.62363  Biso   1.000  Ca
  P703     1.0000 0.37136  0.46838  0.65147  Biso   1.000  P 
  O3055    1.0000 0.48484  0.46838  0.61269  Biso   1.000  O 
  O3056    1.0000 0.39463  0.46838  0.65400  Biso   1.000  O 
  Ca1176   1.0000 0.49929  0.46838  0.63765  Biso   1.000  Ca
  P704     1.0000 0.45404  0.46838  0.64084  Biso   1.000  P 
  O3057    1.0000 0.44200  0.46838  0.62563  Biso   1.000  O 
  O3058    1.0000 0.43949  0.46838  0.65471  Biso   1.000  O 
  Ca1177   1.0000 0.40599  0.46838  0.62255  Biso   1.000  Ca
  P705     1.0000 0.29995  0.46838  0.64573  Biso   1.000  P 
  O3059    1.0000 0.32350  0.46838  0.64551  Biso   1.000  O 
  O3060    1.0000 0.29122  0.46838  0.62933  Biso   1.000  O 
  Ca1178   1.0000 0.28018  0.40589  0.65033  Biso   1.000  Ca
  P706     1.0000 0.25386  0.40589  0.62248  Biso   1.000  P 
  O3061    1.0000 0.39039  0.40589  0.66127  Biso   1.000  O 
  O3062    1.0000 0.48060  0.40589  0.61996  Biso   1.000  O 
  Ca1179   1.0000 0.37593  0.40589  0.63630  Biso   1.000  Ca
  P707     1.0000 0.42119  0.40589  0.63312  Biso   1.000  P 
  O3063    1.0000 0.43322  0.40589  0.64833  Biso   1.000  O 
  O3064    1.0000 0.43573  0.40589  0.61924  Biso   1.000  O 
  Ca1180   1.0000 0.46922  0.40589  0.65141  Biso   1.000  Ca
  P708     1.0000 0.32528  0.40589  0.62822  Biso   1.000  P 
  O3065    1.0000 0.30172  0.40589  0.62845  Biso   1.000  O 
  O3066    1.0000 0.33400  0.40589  0.64462  Biso   1.000  O 
  O3067    1.0000 0.37511  0.39938  0.60987  Biso   1.000  O 
  O3068    1.0000 0.37511  0.46187  0.60987  Biso   1.000  O 
  H235     1.0000 0.37511  0.37920  0.60987  Biso   1.000  H 
  H236     1.0000 0.37522  0.44169  0.60982  Biso   1.000  H 
  O3069    1.0000 0.48942  0.49085  0.69670  Biso   1.000  O 
  O3070    1.0000 0.34286  0.49085  0.69504  Biso   1.000  O 
  O3071    1.0000 0.41805  0.49085  0.70895  Biso   1.000  O 
  O3072    1.0000 0.38580  0.42835  0.68569  Biso   1.000  O 
  O3073    1.0000 0.28236  0.42835  0.68734  Biso   1.000  O 
  O3074    1.0000 0.45717  0.42835  0.67344  Biso   1.000  O 
  O3075    1.0000 0.38580  0.38342  0.68569  Biso   1.000  O 
  O3076    1.0000 0.28236  0.38342  0.68734  Biso   1.000  O 
  O3077    1.0000 0.45717  0.38342  0.67344  Biso   1.000  O 
  O3078    1.0000 0.48942  0.44593  0.69670  Biso   1.000  O 
  O3079    1.0000 0.34286  0.44593  0.69504  Biso   1.000  O 
  O3080    1.0000 0.41805  0.44593  0.70895  Biso   1.000  O 
  Ca1181   1.0000 0.41678  0.49945  0.66408  Biso   1.000  Ca
  Ca1182   1.0000 0.33344  0.43696  0.66409  Biso   1.000  Ca
  Ca1183   1.0000 0.33344  0.49982  0.66409  Biso   1.000  Ca
  Ca1184   1.0000 0.41678  0.43731  0.66408  Biso   1.000  Ca
  Ca1185   1.0000 0.47006  0.46838  0.67784  Biso   1.000  Ca
  P709     1.0000 0.49636  0.46838  0.70569  Biso   1.000  P 
  O3081    1.0000 0.35984  0.46838  0.66691  Biso   1.000  O 
  O3082    1.0000 0.26963  0.46838  0.70822  Biso   1.000  O 
  Ca1186   1.0000 0.37429  0.46838  0.69187  Biso   1.000  Ca
  P710     1.0000 0.32904  0.46838  0.69506  Biso   1.000  P 
  O3083    1.0000 0.31700  0.46838  0.67985  Biso   1.000  O 
  O3084    1.0000 0.31449  0.46838  0.70893  Biso   1.000  O 
  Ca1187   1.0000 0.28099  0.46838  0.67677  Biso   1.000  Ca
  P711     1.0000 0.42495  0.46838  0.69995  Biso   1.000  P 
  O3085    1.0000 0.44850  0.46838  0.69973  Biso   1.000  O 
  O3086    1.0000 0.41622  0.46838  0.68355  Biso   1.000  O 
  Ca1188   1.0000 0.40518  0.40589  0.70455  Biso   1.000  Ca
  P712     1.0000 0.37886  0.40589  0.67670  Biso   1.000  P 
  O3087    1.0000 0.26539  0.40589  0.71548  Biso   1.000  O 
  O3088    1.0000 0.35560  0.40589  0.67418  Biso   1.000  O 
  Ca1189   1.0000 0.25093  0.40589  0.69052  Biso   1.000  Ca
  P713     1.0000 0.29619  0.40589  0.68733  Biso   1.000  P 
  O3089    1.0000 0.30822  0.40589  0.70255  Biso   1.000  O 
  O3090    1.0000 0.31073  0.40589  0.67346  Biso   1.000  O 
  Ca1190   1.0000 0.34422  0.40589  0.70563  Biso   1.000  Ca
  P714     1.0000 0.45028  0.40589  0.68244  Biso   1.000  P 
  O3091    1.0000 0.42672  0.40589  0.68266  Biso   1.000  O 
  O3092    1.0000 0.45900  0.40589  0.69884  Biso   1.000  O 
  O3093    1.0000 0.25011  0.39938  0.66409  Biso   1.000  O 
  O3094    1.0000 0.25011  0.46187  0.66409  Biso   1.000  O 
  H237     1.0000 0.25011  0.37920  0.66409  Biso   1.000  H 
  H238     1.0000 0.25022  0.44169  0.66404  Biso   1.000  H 
  O3095    1.0000 0.36442  0.49085  0.75091  Biso   1.000  O 
  O3096    1.0000 0.46786  0.49085  0.74926  Biso   1.000  O 
  O3097    1.0000 0.29305  0.49085  0.76317  Biso   1.000  O 
  O3098    1.0000 0.26080  0.42835  0.73991  Biso   1.000  O 
  O3099    1.0000 0.40736  0.42835  0.74156  Biso   1.000  O 
  O3100    1.0000 0.33217  0.42835  0.72766  Biso   1.000  O 
  O3101    1.0000 0.26080  0.38342  0.73991  Biso   1.000  O 
  O3102    1.0000 0.40736  0.38342  0.74156  Biso   1.000  O 
  O3103    1.0000 0.33217  0.38342  0.72766  Biso   1.000  O 
  O3104    1.0000 0.36442  0.44593  0.75091  Biso   1.000  O 
  O3105    1.0000 0.46786  0.44593  0.74926  Biso   1.000  O 
  O3106    1.0000 0.29305  0.44593  0.76317  Biso   1.000  O 
  Ca1191   1.0000 0.29178  0.49945  0.71830  Biso   1.000  Ca
  Ca1192   1.0000 0.45844  0.43696  0.71831  Biso   1.000  Ca
  Ca1193   1.0000 0.45844  0.49982  0.71831  Biso   1.000  Ca
  Ca1194   1.0000 0.29178  0.43731  0.71830  Biso   1.000  Ca
  Ca1195   1.0000 0.34506  0.46838  0.73206  Biso   1.000  Ca
  P715     1.0000 0.37136  0.46838  0.75990  Biso   1.000  P 
  O3107    1.0000 0.48484  0.46838  0.72113  Biso   1.000  O 
  O3108    1.0000 0.39463  0.46838  0.76243  Biso   1.000  O 
  Ca1196   1.0000 0.49929  0.46838  0.74609  Biso   1.000  Ca
  P716     1.0000 0.45404  0.46838  0.74928  Biso   1.000  P 
  O3109    1.0000 0.44200  0.46838  0.73407  Biso   1.000  O 
  O3110    1.0000 0.43949  0.46838  0.76315  Biso   1.000  O 
  Ca1197   1.0000 0.40599  0.46838  0.73099  Biso   1.000  Ca
  P717     1.0000 0.29995  0.46838  0.75417  Biso   1.000  P 
  O3111    1.0000 0.32350  0.46838  0.75394  Biso   1.000  O 
  O3112    1.0000 0.29122  0.46838  0.73776  Biso   1.000  O 
  Ca1198   1.0000 0.28018  0.40589  0.75877  Biso   1.000  Ca
  P718     1.0000 0.25386  0.40589  0.73092  Biso   1.000  P 
  O3113    1.0000 0.39039  0.40589  0.76970  Biso   1.000  O 
  O3114    1.0000 0.48060  0.40589  0.72840  Biso   1.000  O 
  Ca1199   1.0000 0.37593  0.40589  0.74474  Biso   1.000  Ca
  P719     1.0000 0.42119  0.40589  0.74155  Biso   1.000  P 
  O3115    1.0000 0.43322  0.40589  0.75677  Biso   1.000  O 
  O3116    1.0000 0.43573  0.40589  0.72767  Biso   1.000  O 
  Ca1200   1.0000 0.46922  0.40589  0.75984  Biso   1.000  Ca
  P720     1.0000 0.32528  0.40589  0.73666  Biso   1.000  P 
  O3117    1.0000 0.30172  0.40589  0.73688  Biso   1.000  O 
  O3118    1.0000 0.33400  0.40589  0.75306  Biso   1.000  O 
  O3119    1.0000 0.37511  0.39938  0.71831  Biso   1.000  O 
  O3120    1.0000 0.37511  0.46187  0.71831  Biso   1.000  O 
  H239     1.0000 0.37511  0.37920  0.71831  Biso   1.000  H 
  H240     1.0000 0.37522  0.44169  0.71826  Biso   1.000  H 
  O3121    1.0000 0.48942  0.61585  0.26295  Biso   1.000  O 
  O3122    1.0000 0.34286  0.61585  0.26130  Biso   1.000  O 
  O3123    1.0000 0.41805  0.61585  0.27520  Biso   1.000  O 
  O3124    1.0000 0.38580  0.55335  0.25195  Biso   1.000  O 
  O3125    1.0000 0.28236  0.55335  0.25360  Biso   1.000  O 
  O3126    1.0000 0.45717  0.55335  0.23970  Biso   1.000  O 
  O3127    1.0000 0.38580  0.50842  0.25195  Biso   1.000  O 
  O3128    1.0000 0.28236  0.50842  0.25360  Biso   1.000  O 
  O3129    1.0000 0.45717  0.50842  0.23970  Biso   1.000  O 
  O3130    1.0000 0.48942  0.57093  0.26295  Biso   1.000  O 
  O3131    1.0000 0.34286  0.57093  0.26130  Biso   1.000  O 
  O3132    1.0000 0.41805  0.57093  0.27520  Biso   1.000  O 
  Ca1201   1.0000 0.41678  0.62445  0.23034  Biso   1.000  Ca
  Ca1202   1.0000 0.33344  0.56196  0.23035  Biso   1.000  Ca
  Ca1203   1.0000 0.33344  0.62482  0.23035  Biso   1.000  Ca
  Ca1204   1.0000 0.41678  0.56231  0.23034  Biso   1.000  Ca
  Ca1205   1.0000 0.47006  0.59338  0.24410  Biso   1.000  Ca
  P721     1.0000 0.49636  0.59338  0.27194  Biso   1.000  P 
  O3133    1.0000 0.35984  0.59338  0.23317  Biso   1.000  O 
  O3134    1.0000 0.26963  0.59338  0.27447  Biso   1.000  O 
  Ca1206   1.0000 0.37429  0.59338  0.25813  Biso   1.000  Ca
  P722     1.0000 0.32904  0.59338  0.26132  Biso   1.000  P 
  O3135    1.0000 0.31700  0.59338  0.24611  Biso   1.000  O 
  O3136    1.0000 0.31449  0.59338  0.27519  Biso   1.000  O 
  Ca1207   1.0000 0.28099  0.59338  0.24303  Biso   1.000  Ca
  P723     1.0000 0.42495  0.59338  0.26620  Biso   1.000  P 
  O3137    1.0000 0.44850  0.59338  0.26598  Biso   1.000  O 
  O3138    1.0000 0.41622  0.59338  0.24980  Biso   1.000  O 
  Ca1208   1.0000 0.40518  0.53089  0.27081  Biso   1.000  Ca
  P724     1.0000 0.37886  0.53089  0.24296  Biso   1.000  P 
  O3139    1.0000 0.26539  0.53089  0.28174  Biso   1.000  O 
  O3140    1.0000 0.35560  0.53089  0.24043  Biso   1.000  O 
  Ca1209   1.0000 0.25093  0.53089  0.25677  Biso   1.000  Ca
  P725     1.0000 0.29619  0.53089  0.25359  Biso   1.000  P 
  O3141    1.0000 0.30822  0.53089  0.26880  Biso   1.000  O 
  O3142    1.0000 0.31073  0.53089  0.23971  Biso   1.000  O 
  Ca1210   1.0000 0.34422  0.53089  0.27188  Biso   1.000  Ca
  P726     1.0000 0.45028  0.53089  0.24870  Biso   1.000  P 
  O3143    1.0000 0.42672  0.53089  0.24892  Biso   1.000  O 
  O3144    1.0000 0.45900  0.53089  0.26510  Biso   1.000  O 
  O3145    1.0000 0.25011  0.52438  0.23034  Biso   1.000  O 
  O3146    1.0000 0.25011  0.58687  0.23034  Biso   1.000  O 
  H241     1.0000 0.25011  0.50420  0.23034  Biso   1.000  H 
  H242     1.0000 0.25022  0.56669  0.23030  Biso   1.000  H 
  O3147    1.0000 0.36442  0.61585  0.31717  Biso   1.000  O 
  O3148    1.0000 0.46786  0.61585  0.31552  Biso   1.000  O 
  O3149    1.0000 0.29305  0.61585  0.32942  Biso   1.000  O 
  O3150    1.0000 0.26080  0.55335  0.30617  Biso   1.000  O 
  O3151    1.0000 0.40736  0.55335  0.30782  Biso   1.000  O 
  O3152    1.0000 0.33217  0.55335  0.29391  Biso   1.000  O 
  O3153    1.0000 0.26080  0.50842  0.30617  Biso   1.000  O 
  O3154    1.0000 0.40736  0.50842  0.30782  Biso   1.000  O 
  O3155    1.0000 0.33217  0.50842  0.29391  Biso   1.000  O 
  O3156    1.0000 0.36442  0.57093  0.31717  Biso   1.000  O 
  O3157    1.0000 0.46786  0.57093  0.31552  Biso   1.000  O 
  O3158    1.0000 0.29305  0.57093  0.32942  Biso   1.000  O 
  Ca1211   1.0000 0.29178  0.62445  0.28456  Biso   1.000  Ca
  Ca1212   1.0000 0.45844  0.56196  0.28456  Biso   1.000  Ca
  Ca1213   1.0000 0.45844  0.62482  0.28456  Biso   1.000  Ca
  Ca1214   1.0000 0.29178  0.56231  0.28456  Biso   1.000  Ca
  Ca1215   1.0000 0.34506  0.59338  0.29832  Biso   1.000  Ca
  P727     1.0000 0.37136  0.59338  0.32616  Biso   1.000  P 
  O3159    1.0000 0.48484  0.59338  0.28738  Biso   1.000  O 
  O3160    1.0000 0.39463  0.59338  0.32869  Biso   1.000  O 
  Ca1216   1.0000 0.49929  0.59338  0.31234  Biso   1.000  Ca
  P728     1.0000 0.45404  0.59338  0.31554  Biso   1.000  P 
  O3161    1.0000 0.44200  0.59338  0.30033  Biso   1.000  O 
  O3162    1.0000 0.43949  0.59338  0.32941  Biso   1.000  O 
  Ca1217   1.0000 0.40599  0.59338  0.29725  Biso   1.000  Ca
  P729     1.0000 0.29995  0.59338  0.32042  Biso   1.000  P 
  O3163    1.0000 0.32350  0.59338  0.32020  Biso   1.000  O 
  O3164    1.0000 0.29122  0.59338  0.30402  Biso   1.000  O 
  Ca1218   1.0000 0.28018  0.53089  0.32502  Biso   1.000  Ca
  P730     1.0000 0.25386  0.53089  0.29718  Biso   1.000  P 
  O3165    1.0000 0.39039  0.53089  0.33596  Biso   1.000  O 
  O3166    1.0000 0.48060  0.53089  0.29465  Biso   1.000  O 
  Ca1219   1.0000 0.37593  0.53089  0.31099  Biso   1.000  Ca
  P731     1.0000 0.42119  0.53089  0.30781  Biso   1.000  P 
  O3167    1.0000 0.43322  0.53089  0.32302  Biso   1.000  O 
  O3168    1.0000 0.43573  0.53089  0.29393  Biso   1.000  O 
  Ca1220   1.0000 0.46922  0.53089  0.32610  Biso   1.000  Ca
  P732     1.0000 0.32528  0.53089  0.30291  Biso   1.000  P 
  O3169    1.0000 0.30172  0.53089  0.30314  Biso   1.000  O 
  O3170    1.0000 0.33400  0.53089  0.31932  Biso   1.000  O 
  O3171    1.0000 0.37511  0.52438  0.28456  Biso   1.000  O 
  O3172    1.0000 0.37511  0.58687  0.28456  Biso   1.000  O 
  H243     1.0000 0.37511  0.50420  0.28456  Biso   1.000  H 
  H244     1.0000 0.37522  0.56669  0.28452  Biso   1.000  H 
  O3173    1.0000 0.48942  0.61585  0.37139  Biso   1.000  O 
  O3174    1.0000 0.34286  0.61585  0.36974  Biso   1.000  O 
  O3175    1.0000 0.41805  0.61585  0.38364  Biso   1.000  O 
  O3176    1.0000 0.38580  0.55335  0.36038  Biso   1.000  O 
  O3177    1.0000 0.28236  0.55335  0.36204  Biso   1.000  O 
  O3178    1.0000 0.45717  0.55335  0.34813  Biso   1.000  O 
  O3179    1.0000 0.38580  0.50842  0.36038  Biso   1.000  O 
  O3180    1.0000 0.28236  0.50842  0.36204  Biso   1.000  O 
  O3181    1.0000 0.45717  0.50842  0.34813  Biso   1.000  O 
  O3182    1.0000 0.48942  0.57093  0.37139  Biso   1.000  O 
  O3183    1.0000 0.34286  0.57093  0.36974  Biso   1.000  O 
  O3184    1.0000 0.41805  0.57093  0.38364  Biso   1.000  O 
  Ca1221   1.0000 0.41678  0.62445  0.33877  Biso   1.000  Ca
  Ca1222   1.0000 0.33344  0.56196  0.33878  Biso   1.000  Ca
  Ca1223   1.0000 0.33344  0.62482  0.33878  Biso   1.000  Ca
  Ca1224   1.0000 0.41678  0.56231  0.33877  Biso   1.000  Ca
  Ca1225   1.0000 0.47006  0.59338  0.35254  Biso   1.000  Ca
  P733     1.0000 0.49636  0.59338  0.38038  Biso   1.000  P 
  O3185    1.0000 0.35984  0.59338  0.34160  Biso   1.000  O 
  O3186    1.0000 0.26963  0.59338  0.38291  Biso   1.000  O 
  Ca1226   1.0000 0.37429  0.59338  0.36656  Biso   1.000  Ca
  P734     1.0000 0.32904  0.59338  0.36975  Biso   1.000  P 
  O3187    1.0000 0.31700  0.59338  0.35454  Biso   1.000  O 
  O3188    1.0000 0.31449  0.59338  0.38362  Biso   1.000  O 
  Ca1227   1.0000 0.28099  0.59338  0.35146  Biso   1.000  Ca
  P735     1.0000 0.42495  0.59338  0.37464  Biso   1.000  P 
  O3189    1.0000 0.44850  0.59338  0.37442  Biso   1.000  O 
  O3190    1.0000 0.41622  0.59338  0.35824  Biso   1.000  O 
  Ca1228   1.0000 0.40518  0.53089  0.37924  Biso   1.000  Ca
  P736     1.0000 0.37886  0.53089  0.35140  Biso   1.000  P 
  O3191    1.0000 0.26539  0.53089  0.39018  Biso   1.000  O 
  O3192    1.0000 0.35560  0.53089  0.34887  Biso   1.000  O 
  Ca1229   1.0000 0.25093  0.53089  0.36521  Biso   1.000  Ca
  P737     1.0000 0.29619  0.53089  0.36203  Biso   1.000  P 
  O3193    1.0000 0.30822  0.53089  0.37724  Biso   1.000  O 
  O3194    1.0000 0.31073  0.53089  0.34815  Biso   1.000  O 
  Ca1230   1.0000 0.34422  0.53089  0.38032  Biso   1.000  Ca
  P738     1.0000 0.45028  0.53089  0.35713  Biso   1.000  P 
  O3195    1.0000 0.42672  0.53089  0.35736  Biso   1.000  O 
  O3196    1.0000 0.45900  0.53089  0.37353  Biso   1.000  O 
  O3197    1.0000 0.25011  0.52438  0.33878  Biso   1.000  O 
  O3198    1.0000 0.25011  0.58687  0.33878  Biso   1.000  O 
  H245     1.0000 0.25011  0.50420  0.33878  Biso   1.000  H 
  H246     1.0000 0.25022  0.56669  0.33873  Biso   1.000  H 
  O3199    1.0000 0.36442  0.61585  0.42561  Biso   1.000  O 
  O3200    1.0000 0.46786  0.61585  0.42395  Biso   1.000  O 
  O3201    1.0000 0.29305  0.61585  0.43786  Biso   1.000  O 
  O3202    1.0000 0.26080  0.55335  0.41460  Biso   1.000  O 
  O3203    1.0000 0.40736  0.55335  0.41625  Biso   1.000  O 
  O3204    1.0000 0.33217  0.55335  0.40235  Biso   1.000  O 
  O3205    1.0000 0.26080  0.50842  0.41460  Biso   1.000  O 
  O3206    1.0000 0.40736  0.50842  0.41625  Biso   1.000  O 
  O3207    1.0000 0.33217  0.50842  0.40235  Biso   1.000  O 
  O3208    1.0000 0.36442  0.57093  0.42561  Biso   1.000  O 
  O3209    1.0000 0.46786  0.57093  0.42395  Biso   1.000  O 
  O3210    1.0000 0.29305  0.57093  0.43786  Biso   1.000  O 
  Ca1231   1.0000 0.29178  0.62445  0.39299  Biso   1.000  Ca
  Ca1232   1.0000 0.45844  0.56196  0.39300  Biso   1.000  Ca
  Ca1233   1.0000 0.45844  0.62482  0.39300  Biso   1.000  Ca
  Ca1234   1.0000 0.29178  0.56231  0.39299  Biso   1.000  Ca
  Ca1235   1.0000 0.34506  0.59338  0.40675  Biso   1.000  Ca
  P739     1.0000 0.37136  0.59338  0.43460  Biso   1.000  P 
  O3211    1.0000 0.48484  0.59338  0.39582  Biso   1.000  O 
  O3212    1.0000 0.39463  0.59338  0.43713  Biso   1.000  O 
  Ca1236   1.0000 0.49929  0.59338  0.42078  Biso   1.000  Ca
  P740     1.0000 0.45404  0.59338  0.42397  Biso   1.000  P 
  O3213    1.0000 0.44200  0.59338  0.40876  Biso   1.000  O 
  O3214    1.0000 0.43949  0.59338  0.43784  Biso   1.000  O 
  Ca1237   1.0000 0.40599  0.59338  0.40568  Biso   1.000  Ca
  P741     1.0000 0.29995  0.59338  0.42886  Biso   1.000  P 
  O3215    1.0000 0.32350  0.59338  0.42864  Biso   1.000  O 
  O3216    1.0000 0.29122  0.59338  0.41246  Biso   1.000  O 
  Ca1238   1.0000 0.28018  0.53089  0.43346  Biso   1.000  Ca
  P742     1.0000 0.25386  0.53089  0.40561  Biso   1.000  P 
  O3217    1.0000 0.39039  0.53089  0.44439  Biso   1.000  O 
  O3218    1.0000 0.48060  0.53089  0.40309  Biso   1.000  O 
  Ca1239   1.0000 0.37593  0.53089  0.41943  Biso   1.000  Ca
  P743     1.0000 0.42119  0.53089  0.41624  Biso   1.000  P 
  O3219    1.0000 0.43322  0.53089  0.43146  Biso   1.000  O 
  O3220    1.0000 0.43573  0.53089  0.40237  Biso   1.000  O 
  Ca1240   1.0000 0.46922  0.53089  0.43454  Biso   1.000  Ca
  P744     1.0000 0.32528  0.53089  0.41135  Biso   1.000  P 
  O3221    1.0000 0.30172  0.53089  0.41157  Biso   1.000  O 
  O3222    1.0000 0.33400  0.53089  0.42775  Biso   1.000  O 
  O3223    1.0000 0.37511  0.52438  0.39300  Biso   1.000  O 
  O3224    1.0000 0.37511  0.58687  0.39300  Biso   1.000  O 
  H247     1.0000 0.37511  0.50420  0.39300  Biso   1.000  H 
  H248     1.0000 0.37522  0.56669  0.39295  Biso   1.000  H 
  O3225    1.0000 0.48942  0.61585  0.47982  Biso   1.000  O 
  O3226    1.0000 0.34286  0.61585  0.47817  Biso   1.000  O 
  O3227    1.0000 0.41805  0.61585  0.49208  Biso   1.000  O 
  O3228    1.0000 0.38580  0.55335  0.46882  Biso   1.000  O 
  O3229    1.0000 0.28236  0.55335  0.47047  Biso   1.000  O 
  O3230    1.0000 0.45717  0.55335  0.45657  Biso   1.000  O 
  O3231    1.0000 0.38580  0.50842  0.46882  Biso   1.000  O 
  O3232    1.0000 0.28236  0.50842  0.47047  Biso   1.000  O 
  O3233    1.0000 0.45717  0.50842  0.45657  Biso   1.000  O 
  O3234    1.0000 0.48942  0.57093  0.47982  Biso   1.000  O 
  O3235    1.0000 0.34286  0.57093  0.47817  Biso   1.000  O 
  O3236    1.0000 0.41805  0.57093  0.49208  Biso   1.000  O 
  Ca1241   1.0000 0.41678  0.62445  0.44721  Biso   1.000  Ca
  Ca1242   1.0000 0.33344  0.56196  0.44722  Biso   1.000  Ca
  Ca1243   1.0000 0.33344  0.62482  0.44722  Biso   1.000  Ca
  Ca1244   1.0000 0.41678  0.56231  0.44721  Biso   1.000  Ca
  Ca1245   1.0000 0.47006  0.59338  0.46097  Biso   1.000  Ca
  P745     1.0000 0.49636  0.59338  0.48881  Biso   1.000  P 
  O3237    1.0000 0.35984  0.59338  0.45004  Biso   1.000  O 
  O3238    1.0000 0.26963  0.59338  0.49134  Biso   1.000  O 
  Ca1246   1.0000 0.37429  0.59338  0.47500  Biso   1.000  Ca
  P746     1.0000 0.32904  0.59338  0.47819  Biso   1.000  P 
  O3239    1.0000 0.31700  0.59338  0.46298  Biso   1.000  O 
  O3240    1.0000 0.31449  0.59338  0.49206  Biso   1.000  O 
  Ca1247   1.0000 0.28099  0.59338  0.45990  Biso   1.000  Ca
  P747     1.0000 0.42495  0.59338  0.48308  Biso   1.000  P 
  O3241    1.0000 0.44850  0.59338  0.48285  Biso   1.000  O 
  O3242    1.0000 0.41622  0.59338  0.46667  Biso   1.000  O 
  Ca1248   1.0000 0.40518  0.53089  0.48768  Biso   1.000  Ca
  P748     1.0000 0.37886  0.53089  0.45983  Biso   1.000  P 
  O3243    1.0000 0.26539  0.53089  0.49861  Biso   1.000  O 
  O3244    1.0000 0.35560  0.53089  0.45731  Biso   1.000  O 
  Ca1249   1.0000 0.25093  0.53089  0.47365  Biso   1.000  Ca
  P749     1.0000 0.29619  0.53089  0.47046  Biso   1.000  P 
  O3245    1.0000 0.30822  0.53089  0.48568  Biso   1.000  O 
  O3246    1.0000 0.31073  0.53089  0.45658  Biso   1.000  O 
  Ca1250   1.0000 0.34422  0.53089  0.48875  Biso   1.000  Ca
  P750     1.0000 0.45028  0.53089  0.46557  Biso   1.000  P 
  O3247    1.0000 0.42672  0.53089  0.46579  Biso   1.000  O 
  O3248    1.0000 0.45900  0.53089  0.48197  Biso   1.000  O 
  O3249    1.0000 0.25011  0.52438  0.44722  Biso   1.000  O 
  O3250    1.0000 0.25011  0.58687  0.44722  Biso   1.000  O 
  H249     1.0000 0.25011  0.50420  0.44722  Biso   1.000  H 
  H250     1.0000 0.25022  0.56669  0.44717  Biso   1.000  H 
  O3251    1.0000 0.36442  0.61585  0.53404  Biso   1.000  O 
  O3252    1.0000 0.46786  0.61585  0.53239  Biso   1.000  O 
  O3253    1.0000 0.29305  0.61585  0.54629  Biso   1.000  O 
  O3254    1.0000 0.26080  0.55335  0.52304  Biso   1.000  O 
  O3255    1.0000 0.40736  0.55335  0.52469  Biso   1.000  O 
  O3256    1.0000 0.33217  0.55335  0.51079  Biso   1.000  O 
  O3257    1.0000 0.26080  0.50842  0.52304  Biso   1.000  O 
  O3258    1.0000 0.40736  0.50842  0.52469  Biso   1.000  O 
  O3259    1.0000 0.33217  0.50842  0.51079  Biso   1.000  O 
  O3260    1.0000 0.36442  0.57093  0.53404  Biso   1.000  O 
  O3261    1.0000 0.46786  0.57093  0.53239  Biso   1.000  O 
  O3262    1.0000 0.29305  0.57093  0.54629  Biso   1.000  O 
  Ca1251   1.0000 0.29178  0.62445  0.50143  Biso   1.000  Ca
  Ca1252   1.0000 0.45844  0.56196  0.50144  Biso   1.000  Ca
  Ca1253   1.0000 0.45844  0.62482  0.50144  Biso   1.000  Ca
  Ca1254   1.0000 0.29178  0.56231  0.50143  Biso   1.000  Ca
  Ca1255   1.0000 0.34506  0.59338  0.51519  Biso   1.000  Ca
  P751     1.0000 0.37136  0.59338  0.54303  Biso   1.000  P 
  O3263    1.0000 0.48484  0.59338  0.50426  Biso   1.000  O 
  O3264    1.0000 0.39463  0.59338  0.54556  Biso   1.000  O 
  Ca1256   1.0000 0.49929  0.59338  0.52922  Biso   1.000  Ca
  P752     1.0000 0.45404  0.59338  0.53241  Biso   1.000  P 
  O3265    1.0000 0.44200  0.59338  0.51720  Biso   1.000  O 
  O3266    1.0000 0.43949  0.59338  0.54628  Biso   1.000  O 
  Ca1257   1.0000 0.40599  0.59338  0.51412  Biso   1.000  Ca
  P753     1.0000 0.29995  0.59338  0.53729  Biso   1.000  P 
  O3267    1.0000 0.32350  0.59338  0.53707  Biso   1.000  O 
  O3268    1.0000 0.29122  0.59338  0.52089  Biso   1.000  O 
  Ca1258   1.0000 0.28018  0.53089  0.54190  Biso   1.000  Ca
  P754     1.0000 0.25386  0.53089  0.51405  Biso   1.000  P 
  O3269    1.0000 0.39039  0.53089  0.55283  Biso   1.000  O 
  O3270    1.0000 0.48060  0.53089  0.51152  Biso   1.000  O 
  Ca1259   1.0000 0.37593  0.53089  0.52786  Biso   1.000  Ca
  P755     1.0000 0.42119  0.53089  0.52468  Biso   1.000  P 
  O3271    1.0000 0.43322  0.53089  0.53989  Biso   1.000  O 
  O3272    1.0000 0.43573  0.53089  0.51080  Biso   1.000  O 
  Ca1260   1.0000 0.46922  0.53089  0.54297  Biso   1.000  Ca
  P756     1.0000 0.32528  0.53089  0.51979  Biso   1.000  P 
  O3273    1.0000 0.30172  0.53089  0.52001  Biso   1.000  O 
  O3274    1.0000 0.33400  0.53089  0.53619  Biso   1.000  O 
  O3275    1.0000 0.37511  0.52438  0.50143  Biso   1.000  O 
  O3276    1.0000 0.37511  0.58687  0.50143  Biso   1.000  O 
  H251     1.0000 0.37511  0.50420  0.50143  Biso   1.000  H 
  H252     1.0000 0.37522  0.56669  0.50139  Biso   1.000  H 
  O3277    1.0000 0.48942  0.61585  0.58826  Biso   1.000  O 
  O3278    1.0000 0.34286  0.61585  0.58661  Biso   1.000  O 
  O3279    1.0000 0.41805  0.61585  0.60051  Biso   1.000  O 
  O3280    1.0000 0.38580  0.55335  0.57726  Biso   1.000  O 
  O3281    1.0000 0.28236  0.55335  0.57891  Biso   1.000  O 
  O3282    1.0000 0.45717  0.55335  0.56500  Biso   1.000  O 
  O3283    1.0000 0.38580  0.50842  0.57726  Biso   1.000  O 
  O3284    1.0000 0.28236  0.50842  0.57891  Biso   1.000  O 
  O3285    1.0000 0.45717  0.50842  0.56500  Biso   1.000  O 
  O3286    1.0000 0.48942  0.57093  0.58826  Biso   1.000  O 
  O3287    1.0000 0.34286  0.57093  0.58661  Biso   1.000  O 
  O3288    1.0000 0.41805  0.57093  0.60051  Biso   1.000  O 
  Ca1261   1.0000 0.41678  0.62445  0.55565  Biso   1.000  Ca
  Ca1262   1.0000 0.33344  0.56196  0.55565  Biso   1.000  Ca
  Ca1263   1.0000 0.33344  0.62482  0.55565  Biso   1.000  Ca
  Ca1264   1.0000 0.41678  0.56231  0.55565  Biso   1.000  Ca
  Ca1265   1.0000 0.47006  0.59338  0.56941  Biso   1.000  Ca
  P757     1.0000 0.49636  0.59338  0.59725  Biso   1.000  P 
  O3289    1.0000 0.35984  0.59338  0.55847  Biso   1.000  O 
  O3290    1.0000 0.26963  0.59338  0.59978  Biso   1.000  O 
  Ca1266   1.0000 0.37429  0.59338  0.58343  Biso   1.000  Ca
  P758     1.0000 0.32904  0.59338  0.58662  Biso   1.000  P 
  O3291    1.0000 0.31700  0.59338  0.57141  Biso   1.000  O 
  O3292    1.0000 0.31449  0.59338  0.60050  Biso   1.000  O 
  Ca1267   1.0000 0.28099  0.59338  0.56834  Biso   1.000  Ca
  P759     1.0000 0.42495  0.59338  0.59151  Biso   1.000  P 
  O3293    1.0000 0.44850  0.59338  0.59129  Biso   1.000  O 
  O3294    1.0000 0.41622  0.59338  0.57511  Biso   1.000  O 
  Ca1268   1.0000 0.40518  0.53089  0.59611  Biso   1.000  Ca
  P760     1.0000 0.37886  0.53089  0.56827  Biso   1.000  P 
  O3295    1.0000 0.26539  0.53089  0.60705  Biso   1.000  O 
  O3296    1.0000 0.35560  0.53089  0.56574  Biso   1.000  O 
  Ca1269   1.0000 0.25093  0.53089  0.58208  Biso   1.000  Ca
  P761     1.0000 0.29619  0.53089  0.57890  Biso   1.000  P 
  O3297    1.0000 0.30822  0.53089  0.59411  Biso   1.000  O 
  O3298    1.0000 0.31073  0.53089  0.56502  Biso   1.000  O 
  Ca1270   1.0000 0.34422  0.53089  0.59719  Biso   1.000  Ca
  P762     1.0000 0.45028  0.53089  0.57400  Biso   1.000  P 
  O3299    1.0000 0.42672  0.53089  0.57423  Biso   1.000  O 
  O3300    1.0000 0.45900  0.53089  0.59041  Biso   1.000  O 
  O3301    1.0000 0.25011  0.52438  0.55565  Biso   1.000  O 
  O3302    1.0000 0.25011  0.58687  0.55565  Biso   1.000  O 
  H253     1.0000 0.25011  0.50420  0.55565  Biso   1.000  H 
  H254     1.0000 0.25022  0.56669  0.55561  Biso   1.000  H 
  O3303    1.0000 0.36442  0.61585  0.64248  Biso   1.000  O 
  O3304    1.0000 0.46786  0.61585  0.64083  Biso   1.000  O 
  O3305    1.0000 0.29305  0.61585  0.65473  Biso   1.000  O 
  O3306    1.0000 0.26080  0.55335  0.63147  Biso   1.000  O 
  O3307    1.0000 0.40736  0.55335  0.63313  Biso   1.000  O 
  O3308    1.0000 0.33217  0.55335  0.61922  Biso   1.000  O 
  O3309    1.0000 0.26080  0.50842  0.63147  Biso   1.000  O 
  O3310    1.0000 0.40736  0.50842  0.63313  Biso   1.000  O 
  O3311    1.0000 0.33217  0.50842  0.61922  Biso   1.000  O 
  O3312    1.0000 0.36442  0.57093  0.64248  Biso   1.000  O 
  O3313    1.0000 0.46786  0.57093  0.64083  Biso   1.000  O 
  O3314    1.0000 0.29305  0.57093  0.65473  Biso   1.000  O 
  Ca1271   1.0000 0.29178  0.62445  0.60986  Biso   1.000  Ca
  Ca1272   1.0000 0.45844  0.56196  0.60987  Biso   1.000  Ca
  Ca1273   1.0000 0.45844  0.62482  0.60987  Biso   1.000  Ca
  Ca1274   1.0000 0.29178  0.56231  0.60986  Biso   1.000  Ca
  Ca1275   1.0000 0.34506  0.59338  0.62363  Biso   1.000  Ca
  P763     1.0000 0.37136  0.59338  0.65147  Biso   1.000  P 
  O3315    1.0000 0.48484  0.59338  0.61269  Biso   1.000  O 
  O3316    1.0000 0.39463  0.59338  0.65400  Biso   1.000  O 
  Ca1276   1.0000 0.49929  0.59338  0.63765  Biso   1.000  Ca
  P764     1.0000 0.45404  0.59338  0.64084  Biso   1.000  P 
  O3317    1.0000 0.44200  0.59338  0.62563  Biso   1.000  O 
  O3318    1.0000 0.43949  0.59338  0.65471  Biso   1.000  O 
  Ca1277   1.0000 0.40599  0.59338  0.62255  Biso   1.000  Ca
  P765     1.0000 0.29995  0.59338  0.64573  Biso   1.000  P 
  O3319    1.0000 0.32350  0.59338  0.64551  Biso   1.000  O 
  O3320    1.0000 0.29122  0.59338  0.62933  Biso   1.000  O 
  Ca1278   1.0000 0.28018  0.53089  0.65033  Biso   1.000  Ca
  P766     1.0000 0.25386  0.53089  0.62248  Biso   1.000  P 
  O3321    1.0000 0.39039  0.53089  0.66127  Biso   1.000  O 
  O3322    1.0000 0.48060  0.53089  0.61996  Biso   1.000  O 
  Ca1279   1.0000 0.37593  0.53089  0.63630  Biso   1.000  Ca
  P767     1.0000 0.42119  0.53089  0.63312  Biso   1.000  P 
  O3323    1.0000 0.43322  0.53089  0.64833  Biso   1.000  O 
  O3324    1.0000 0.43573  0.53089  0.61924  Biso   1.000  O 
  Ca1280   1.0000 0.46922  0.53089  0.65141  Biso   1.000  Ca
  P768     1.0000 0.32528  0.53089  0.62822  Biso   1.000  P 
  O3325    1.0000 0.30172  0.53089  0.62845  Biso   1.000  O 
  O3326    1.0000 0.33400  0.53089  0.64462  Biso   1.000  O 
  O3327    1.0000 0.37511  0.52438  0.60987  Biso   1.000  O 
  O3328    1.0000 0.37511  0.58687  0.60987  Biso   1.000  O 
  H255     1.0000 0.37511  0.50420  0.60987  Biso   1.000  H 
  H256     1.0000 0.37522  0.56669  0.60982  Biso   1.000  H 
  O3329    1.0000 0.48942  0.61585  0.69670  Biso   1.000  O 
  O3330    1.0000 0.34286  0.61585  0.69504  Biso   1.000  O 
  O3331    1.0000 0.41805  0.61585  0.70895  Biso   1.000  O 
  O3332    1.0000 0.38580  0.55335  0.68569  Biso   1.000  O 
  O3333    1.0000 0.28236  0.55335  0.68734  Biso   1.000  O 
  O3334    1.0000 0.45717  0.55335  0.67344  Biso   1.000  O 
  O3335    1.0000 0.38580  0.50842  0.68569  Biso   1.000  O 
  O3336    1.0000 0.28236  0.50842  0.68734  Biso   1.000  O 
  O3337    1.0000 0.45717  0.50842  0.67344  Biso   1.000  O 
  O3338    1.0000 0.48942  0.57093  0.69670  Biso   1.000  O 
  O3339    1.0000 0.34286  0.57093  0.69504  Biso   1.000  O 
  O3340    1.0000 0.41805  0.57093  0.70895  Biso   1.000  O 
  Ca1281   1.0000 0.41678  0.62445  0.66408  Biso   1.000  Ca
  Ca1282   1.0000 0.33344  0.56196  0.66409  Biso   1.000  Ca
  Ca1283   1.0000 0.33344  0.62482  0.66409  Biso   1.000  Ca
  Ca1284   1.0000 0.41678  0.56231  0.66408  Biso   1.000  Ca
  Ca1285   1.0000 0.47006  0.59338  0.67784  Biso   1.000  Ca
  P769     1.0000 0.49636  0.59338  0.70569  Biso   1.000  P 
  O3341    1.0000 0.35984  0.59338  0.66691  Biso   1.000  O 
  O3342    1.0000 0.26963  0.59338  0.70822  Biso   1.000  O 
  Ca1286   1.0000 0.37429  0.59338  0.69187  Biso   1.000  Ca
  P770     1.0000 0.32904  0.59338  0.69506  Biso   1.000  P 
  O3343    1.0000 0.31700  0.59338  0.67985  Biso   1.000  O 
  O3344    1.0000 0.31449  0.59338  0.70893  Biso   1.000  O 
  Ca1287   1.0000 0.28099  0.59338  0.67677  Biso   1.000  Ca
  P771     1.0000 0.42495  0.59338  0.69995  Biso   1.000  P 
  O3345    1.0000 0.44850  0.59338  0.69973  Biso   1.000  O 
  O3346    1.0000 0.41622  0.59338  0.68355  Biso   1.000  O 
  Ca1288   1.0000 0.40518  0.53089  0.70455  Biso   1.000  Ca
  P772     1.0000 0.37886  0.53089  0.67670  Biso   1.000  P 
  O3347    1.0000 0.26539  0.53089  0.71548  Biso   1.000  O 
  O3348    1.0000 0.35560  0.53089  0.67418  Biso   1.000  O 
  Ca1289   1.0000 0.25093  0.53089  0.69052  Biso   1.000  Ca
  P773     1.0000 0.29619  0.53089  0.68733  Biso   1.000  P 
  O3349    1.0000 0.30822  0.53089  0.70255  Biso   1.000  O 
  O3350    1.0000 0.31073  0.53089  0.67346  Biso   1.000  O 
  Ca1290   1.0000 0.34422  0.53089  0.70563  Biso   1.000  Ca
  P774     1.0000 0.45028  0.53089  0.68244  Biso   1.000  P 
  O3351    1.0000 0.42672  0.53089  0.68266  Biso   1.000  O 
  O3352    1.0000 0.45900  0.53089  0.69884  Biso   1.000  O 
  O3353    1.0000 0.25011  0.52438  0.66409  Biso   1.000  O 
  O3354    1.0000 0.25011  0.58687  0.66409  Biso   1.000  O 
  H257     1.0000 0.25011  0.50420  0.66409  Biso   1.000  H 
  H258     1.0000 0.25022  0.56669  0.66404  Biso   1.000  H 
  O3355    1.0000 0.36442  0.61585  0.75091  Biso   1.000  O 
  O3356    1.0000 0.46786  0.61585  0.74926  Biso   1.000  O 
  O3357    1.0000 0.29305  0.61585  0.76317  Biso   1.000  O 
  O3358    1.0000 0.26080  0.55335  0.73991  Biso   1.000  O 
  O3359    1.0000 0.40736  0.55335  0.74156  Biso   1.000  O 
  O3360    1.0000 0.33217  0.55335  0.72766  Biso   1.000  O 
  O3361    1.0000 0.26080  0.50842  0.73991  Biso   1.000  O 
  O3362    1.0000 0.40736  0.50842  0.74156  Biso   1.000  O 
  O3363    1.0000 0.33217  0.50842  0.72766  Biso   1.000  O 
  O3364    1.0000 0.36442  0.57093  0.75091  Biso   1.000  O 
  O3365    1.0000 0.46786  0.57093  0.74926  Biso   1.000  O 
  O3366    1.0000 0.29305  0.57093  0.76317  Biso   1.000  O 
  Ca1291   1.0000 0.29178  0.62445  0.71830  Biso   1.000  Ca
  Ca1292   1.0000 0.45844  0.56196  0.71831  Biso   1.000  Ca
  Ca1293   1.0000 0.45844  0.62482  0.71831  Biso   1.000  Ca
  Ca1294   1.0000 0.29178  0.56231  0.71830  Biso   1.000  Ca
  Ca1295   1.0000 0.34506  0.59338  0.73206  Biso   1.000  Ca
  P775     1.0000 0.37136  0.59338  0.75990  Biso   1.000  P 
  O3367    1.0000 0.48484  0.59338  0.72113  Biso   1.000  O 
  O3368    1.0000 0.39463  0.59338  0.76243  Biso   1.000  O 
  Ca1296   1.0000 0.49929  0.59338  0.74609  Biso   1.000  Ca
  P776     1.0000 0.45404  0.59338  0.74928  Biso   1.000  P 
  O3369    1.0000 0.44200  0.59338  0.73407  Biso   1.000  O 
  O3370    1.0000 0.43949  0.59338  0.76315  Biso   1.000  O 
  Ca1297   1.0000 0.40599  0.59338  0.73099  Biso   1.000  Ca
  P777     1.0000 0.29995  0.59338  0.75417  Biso   1.000  P 
  O3371    1.0000 0.32350  0.59338  0.75394  Biso   1.000  O 
  O3372    1.0000 0.29122  0.59338  0.73776  Biso   1.000  O 
  Ca1298   1.0000 0.28018  0.53089  0.75877  Biso   1.000  Ca
  P778     1.0000 0.25386  0.53089  0.73092  Biso   1.000  P 
  O3373    1.0000 0.39039  0.53089  0.76970  Biso   1.000  O 
  O3374    1.0000 0.48060  0.53089  0.72840  Biso   1.000  O 
  Ca1299   1.0000 0.37593  0.53089  0.74474  Biso   1.000  Ca
  P779     1.0000 0.42119  0.53089  0.74155  Biso   1.000  P 
  O3375    1.0000 0.43322  0.53089  0.75677  Biso   1.000  O 
  O3376    1.0000 0.43573  0.53089  0.72767  Biso   1.000  O 
  Ca1300   1.0000 0.46922  0.53089  0.75984  Biso   1.000  Ca
  P780     1.0000 0.32528  0.53089  0.73666  Biso   1.000  P 
  O3377    1.0000 0.30172  0.53089  0.73688  Biso   1.000  O 
  O3378    1.0000 0.33400  0.53089  0.75306  Biso   1.000  O 
  O3379    1.0000 0.37511  0.52438  0.71831  Biso   1.000  O 
  O3380    1.0000 0.37511  0.58687  0.71831  Biso   1.000  O 
  H259     1.0000 0.37511  0.50420  0.71831  Biso   1.000  H 
  H260     1.0000 0.37522  0.56669  0.71826  Biso   1.000  H 
  O3381    1.0000 0.48942  0.74085  0.26295  Biso   1.000  O 
  O3382    1.0000 0.34286  0.74085  0.26130  Biso   1.000  O 
  O3383    1.0000 0.41805  0.74085  0.27520  Biso   1.000  O 
  O3384    1.0000 0.38580  0.67835  0.25195  Biso   1.000  O 
  O3385    1.0000 0.28236  0.67835  0.25360  Biso   1.000  O 
  O3386    1.0000 0.45717  0.67835  0.23970  Biso   1.000  O 
  O3387    1.0000 0.38580  0.63342  0.25195  Biso   1.000  O 
  O3388    1.0000 0.28236  0.63342  0.25360  Biso   1.000  O 
  O3389    1.0000 0.45717  0.63342  0.23970  Biso   1.000  O 
  O3390    1.0000 0.48942  0.69593  0.26295  Biso   1.000  O 
  O3391    1.0000 0.34286  0.69593  0.26130  Biso   1.000  O 
  O3392    1.0000 0.41805  0.69593  0.27520  Biso   1.000  O 
  Ca1301   1.0000 0.41678  0.74945  0.23034  Biso   1.000  Ca
  Ca1302   1.0000 0.33344  0.68696  0.23035  Biso   1.000  Ca
  Ca1303   1.0000 0.33344  0.74982  0.23035  Biso   1.000  Ca
  Ca1304   1.0000 0.41678  0.68731  0.23034  Biso   1.000  Ca
  Ca1305   1.0000 0.47006  0.71838  0.24410  Biso   1.000  Ca
  P781     1.0000 0.49636  0.71838  0.27194  Biso   1.000  P 
  O3393    1.0000 0.35984  0.71838  0.23317  Biso   1.000  O 
  O3394    1.0000 0.26963  0.71838  0.27447  Biso   1.000  O 
  Ca1306   1.0000 0.37429  0.71838  0.25813  Biso   1.000  Ca
  P782     1.0000 0.32904  0.71838  0.26132  Biso   1.000  P 
  O3395    1.0000 0.31700  0.71838  0.24611  Biso   1.000  O 
  O3396    1.0000 0.31449  0.71838  0.27519  Biso   1.000  O 
  Ca1307   1.0000 0.28099  0.71838  0.24303  Biso   1.000  Ca
  P783     1.0000 0.42495  0.71838  0.26620  Biso   1.000  P 
  O3397    1.0000 0.44850  0.71838  0.26598  Biso   1.000  O 
  O3398    1.0000 0.41622  0.71838  0.24980  Biso   1.000  O 
  Ca1308   1.0000 0.40518  0.65589  0.27081  Biso   1.000  Ca
  P784     1.0000 0.37886  0.65589  0.24296  Biso   1.000  P 
  O3399    1.0000 0.26539  0.65589  0.28174  Biso   1.000  O 
  O3400    1.0000 0.35560  0.65589  0.24043  Biso   1.000  O 
  Ca1309   1.0000 0.25093  0.65589  0.25677  Biso   1.000  Ca
  P785     1.0000 0.29619  0.65589  0.25359  Biso   1.000  P 
  O3401    1.0000 0.30822  0.65589  0.26880  Biso   1.000  O 
  O3402    1.0000 0.31073  0.65589  0.23971  Biso   1.000  O 
  Ca1310   1.0000 0.34422  0.65589  0.27188  Biso   1.000  Ca
  P786     1.0000 0.45028  0.65589  0.24870  Biso   1.000  P 
  O3403    1.0000 0.42672  0.65589  0.24892  Biso   1.000  O 
  O3404    1.0000 0.45900  0.65589  0.26510  Biso   1.000  O 
  O3405    1.0000 0.25011  0.64938  0.23034  Biso   1.000  O 
  O3406    1.0000 0.25011  0.71187  0.23034  Biso   1.000  O 
  H261     1.0000 0.25011  0.62920  0.23034  Biso   1.000  H 
  H262     1.0000 0.25022  0.69169  0.23030  Biso   1.000  H 
  O3407    1.0000 0.36442  0.74085  0.31717  Biso   1.000  O 
  O3408    1.0000 0.46786  0.74085  0.31552  Biso   1.000  O 
  O3409    1.0000 0.29305  0.74085  0.32942  Biso   1.000  O 
  O3410    1.0000 0.26080  0.67835  0.30617  Biso   1.000  O 
  O3411    1.0000 0.40736  0.67835  0.30782  Biso   1.000  O 
  O3412    1.0000 0.33217  0.67835  0.29391  Biso   1.000  O 
  O3413    1.0000 0.26080  0.63342  0.30617  Biso   1.000  O 
  O3414    1.0000 0.40736  0.63342  0.30782  Biso   1.000  O 
  O3415    1.0000 0.33217  0.63342  0.29391  Biso   1.000  O 
  O3416    1.0000 0.36442  0.69593  0.31717  Biso   1.000  O 
  O3417    1.0000 0.46786  0.69593  0.31552  Biso   1.000  O 
  O3418    1.0000 0.29305  0.69593  0.32942  Biso   1.000  O 
  Ca1311   1.0000 0.29178  0.74945  0.28456  Biso   1.000  Ca
  Ca1312   1.0000 0.45844  0.68696  0.28456  Biso   1.000  Ca
  Ca1313   1.0000 0.45844  0.74982  0.28456  Biso   1.000  Ca
  Ca1314   1.0000 0.29178  0.68731  0.28456  Biso   1.000  Ca
  Ca1315   1.0000 0.34506  0.71838  0.29832  Biso   1.000  Ca
  P787     1.0000 0.37136  0.71838  0.32616  Biso   1.000  P 
  O3419    1.0000 0.48484  0.71838  0.28738  Biso   1.000  O 
  O3420    1.0000 0.39463  0.71838  0.32869  Biso   1.000  O 
  Ca1316   1.0000 0.49929  0.71838  0.31234  Biso   1.000  Ca
  P788     1.0000 0.45404  0.71838  0.31554  Biso   1.000  P 
  O3421    1.0000 0.44200  0.71838  0.30033  Biso   1.000  O 
  O3422    1.0000 0.43949  0.71838  0.32941  Biso   1.000  O 
  Ca1317   1.0000 0.40599  0.71838  0.29725  Biso   1.000  Ca
  P789     1.0000 0.29995  0.71838  0.32042  Biso   1.000  P 
  O3423    1.0000 0.32350  0.71838  0.32020  Biso   1.000  O 
  O3424    1.0000 0.29122  0.71838  0.30402  Biso   1.000  O 
  Ca1318   1.0000 0.28018  0.65589  0.32502  Biso   1.000  Ca
  P790     1.0000 0.25386  0.65589  0.29718  Biso   1.000  P 
  O3425    1.0000 0.39039  0.65589  0.33596  Biso   1.000  O 
  O3426    1.0000 0.48060  0.65589  0.29465  Biso   1.000  O 
  Ca1319   1.0000 0.37593  0.65589  0.31099  Biso   1.000  Ca
  P791     1.0000 0.42119  0.65589  0.30781  Biso   1.000  P 
  O3427    1.0000 0.43322  0.65589  0.32302  Biso   1.000  O 
  O3428    1.0000 0.43573  0.65589  0.29393  Biso   1.000  O 
  Ca1320   1.0000 0.46922  0.65589  0.32610  Biso   1.000  Ca
  P792     1.0000 0.32528  0.65589  0.30291  Biso   1.000  P 
  O3429    1.0000 0.30172  0.65589  0.30314  Biso   1.000  O 
  O3430    1.0000 0.33400  0.65589  0.31932  Biso   1.000  O 
  O3431    1.0000 0.37511  0.64938  0.28456  Biso   1.000  O 
  O3432    1.0000 0.37511  0.71187  0.28456  Biso   1.000  O 
  H263     1.0000 0.37511  0.62920  0.28456  Biso   1.000  H 
  H264     1.0000 0.37522  0.69169  0.28452  Biso   1.000  H 
  O3433    1.0000 0.48942  0.74085  0.37139  Biso   1.000  O 
  O3434    1.0000 0.34286  0.74085  0.36974  Biso   1.000  O 
  O3435    1.0000 0.41805  0.74085  0.38364  Biso   1.000  O 
  O3436    1.0000 0.38580  0.67835  0.36038  Biso   1.000  O 
  O3437    1.0000 0.28236  0.67835  0.36204  Biso   1.000  O 
  O3438    1.0000 0.45717  0.67835  0.34813  Biso   1.000  O 
  O3439    1.0000 0.38580  0.63342  0.36038  Biso   1.000  O 
  O3440    1.0000 0.28236  0.63342  0.36204  Biso   1.000  O 
  O3441    1.0000 0.45717  0.63342  0.34813  Biso   1.000  O 
  O3442    1.0000 0.48942  0.69593  0.37139  Biso   1.000  O 
  O3443    1.0000 0.34286  0.69593  0.36974  Biso   1.000  O 
  O3444    1.0000 0.41805  0.69593  0.38364  Biso   1.000  O 
  Ca1321   1.0000 0.41678  0.74945  0.33877  Biso   1.000  Ca
  Ca1322   1.0000 0.33344  0.68696  0.33878  Biso   1.000  Ca
  Ca1323   1.0000 0.33344  0.74982  0.33878  Biso   1.000  Ca
  Ca1324   1.0000 0.41678  0.68731  0.33877  Biso   1.000  Ca
  Ca1325   1.0000 0.47006  0.71838  0.35254  Biso   1.000  Ca
  P793     1.0000 0.49636  0.71838  0.38038  Biso   1.000  P 
  O3445    1.0000 0.35984  0.71838  0.34160  Biso   1.000  O 
  O3446    1.0000 0.26963  0.71838  0.38291  Biso   1.000  O 
  Ca1326   1.0000 0.37429  0.71838  0.36656  Biso   1.000  Ca
  P794     1.0000 0.32904  0.71838  0.36975  Biso   1.000  P 
  O3447    1.0000 0.31700  0.71838  0.35454  Biso   1.000  O 
  O3448    1.0000 0.31449  0.71838  0.38362  Biso   1.000  O 
  Ca1327   1.0000 0.28099  0.71838  0.35146  Biso   1.000  Ca
  P795     1.0000 0.42495  0.71838  0.37464  Biso   1.000  P 
  O3449    1.0000 0.44850  0.71838  0.37442  Biso   1.000  O 
  O3450    1.0000 0.41622  0.71838  0.35824  Biso   1.000  O 
  Ca1328   1.0000 0.40518  0.65589  0.37924  Biso   1.000  Ca
  P796     1.0000 0.37886  0.65589  0.35140  Biso   1.000  P 
  O3451    1.0000 0.26539  0.65589  0.39018  Biso   1.000  O 
  O3452    1.0000 0.35560  0.65589  0.34887  Biso   1.000  O 
  Ca1329   1.0000 0.25093  0.65589  0.36521  Biso   1.000  Ca
  P797     1.0000 0.29619  0.65589  0.36203  Biso   1.000  P 
  O3453    1.0000 0.30822  0.65589  0.37724  Biso   1.000  O 
  O3454    1.0000 0.31073  0.65589  0.34815  Biso   1.000  O 
  Ca1330   1.0000 0.34422  0.65589  0.38032  Biso   1.000  Ca
  P798     1.0000 0.45028  0.65589  0.35713  Biso   1.000  P 
  O3455    1.0000 0.42672  0.65589  0.35736  Biso   1.000  O 
  O3456    1.0000 0.45900  0.65589  0.37353  Biso   1.000  O 
  O3457    1.0000 0.25011  0.64938  0.33878  Biso   1.000  O 
  O3458    1.0000 0.25011  0.71187  0.33878  Biso   1.000  O 
  H265     1.0000 0.25011  0.62920  0.33878  Biso   1.000  H 
  H266     1.0000 0.25022  0.69169  0.33873  Biso   1.000  H 
  O3459    1.0000 0.36442  0.74085  0.42561  Biso   1.000  O 
  O3460    1.0000 0.46786  0.74085  0.42395  Biso   1.000  O 
  O3461    1.0000 0.29305  0.74085  0.43786  Biso   1.000  O 
  O3462    1.0000 0.26080  0.67835  0.41460  Biso   1.000  O 
  O3463    1.0000 0.40736  0.67835  0.41625  Biso   1.000  O 
  O3464    1.0000 0.33217  0.67835  0.40235  Biso   1.000  O 
  O3465    1.0000 0.26080  0.63342  0.41460  Biso   1.000  O 
  O3466    1.0000 0.40736  0.63342  0.41625  Biso   1.000  O 
  O3467    1.0000 0.33217  0.63342  0.40235  Biso   1.000  O 
  O3468    1.0000 0.36442  0.69593  0.42561  Biso   1.000  O 
  O3469    1.0000 0.46786  0.69593  0.42395  Biso   1.000  O 
  O3470    1.0000 0.29305  0.69593  0.43786  Biso   1.000  O 
  Ca1331   1.0000 0.29178  0.74945  0.39299  Biso   1.000  Ca
  Ca1332   1.0000 0.45844  0.68696  0.39300  Biso   1.000  Ca
  Ca1333   1.0000 0.45844  0.74982  0.39300  Biso   1.000  Ca
  Ca1334   1.0000 0.29178  0.68731  0.39299  Biso   1.000  Ca
  Ca1335   1.0000 0.34506  0.71838  0.40675  Biso   1.000  Ca
  P799     1.0000 0.37136  0.71838  0.43460  Biso   1.000  P 
  O3471    1.0000 0.48484  0.71838  0.39582  Biso   1.000  O 
  O3472    1.0000 0.39463  0.71838  0.43713  Biso   1.000  O 
  Ca1336   1.0000 0.49929  0.71838  0.42078  Biso   1.000  Ca
  P800     1.0000 0.45404  0.71838  0.42397  Biso   1.000  P 
  O3473    1.0000 0.44200  0.71838  0.40876  Biso   1.000  O 
  O3474    1.0000 0.43949  0.71838  0.43784  Biso   1.000  O 
  Ca1337   1.0000 0.40599  0.71838  0.40568  Biso   1.000  Ca
  P801     1.0000 0.29995  0.71838  0.42886  Biso   1.000  P 
  O3475    1.0000 0.32350  0.71838  0.42864  Biso   1.000  O 
  O3476    1.0000 0.29122  0.71838  0.41246  Biso   1.000  O 
  Ca1338   1.0000 0.28018  0.65589  0.43346  Biso   1.000  Ca
  P802     1.0000 0.25386  0.65589  0.40561  Biso   1.000  P 
  O3477    1.0000 0.39039  0.65589  0.44439  Biso   1.000  O 
  O3478    1.0000 0.48060  0.65589  0.40309  Biso   1.000  O 
  Ca1339   1.0000 0.37593  0.65589  0.41943  Biso   1.000  Ca
  P803     1.0000 0.42119  0.65589  0.41624  Biso   1.000  P 
  O3479    1.0000 0.43322  0.65589  0.43146  Biso   1.000  O 
  O3480    1.0000 0.43573  0.65589  0.40237  Biso   1.000  O 
  Ca1340   1.0000 0.46922  0.65589  0.43454  Biso   1.000  Ca
  P804     1.0000 0.32528  0.65589  0.41135  Biso   1.000  P 
  O3481    1.0000 0.30172  0.65589  0.41157  Biso   1.000  O 
  O3482    1.0000 0.33400  0.65589  0.42775  Biso   1.000  O 
  O3483    1.0000 0.37511  0.64938  0.39300  Biso   1.000  O 
  O3484    1.0000 0.37511  0.71187  0.39300  Biso   1.000  O 
  H267     1.0000 0.37511  0.62920  0.39300  Biso   1.000  H 
  H268     1.0000 0.37522  0.69169  0.39295  Biso   1.000  H 
  O3485    1.0000 0.48942  0.74085  0.47982  Biso   1.000  O 
  O3486    1.0000 0.34286  0.74085  0.47817  Biso   1.000  O 
  O3487    1.0000 0.41805  0.74085  0.49208  Biso   1.000  O 
  O3488    1.0000 0.38580  0.67835  0.46882  Biso   1.000  O 
  O3489    1.0000 0.28236  0.67835  0.47047  Biso   1.000  O 
  O3490    1.0000 0.45717  0.67835  0.45657  Biso   1.000  O 
  O3491    1.0000 0.38580  0.63342  0.46882  Biso   1.000  O 
  O3492    1.0000 0.28236  0.63342  0.47047  Biso   1.000  O 
  O3493    1.0000 0.45717  0.63342  0.45657  Biso   1.000  O 
  O3494    1.0000 0.48942  0.69593  0.47982  Biso   1.000  O 
  O3495    1.0000 0.34286  0.69593  0.47817  Biso   1.000  O 
  O3496    1.0000 0.41805  0.69593  0.49208  Biso   1.000  O 
  Ca1341   1.0000 0.41678  0.74945  0.44721  Biso   1.000  Ca
  Ca1342   1.0000 0.33344  0.68696  0.44722  Biso   1.000  Ca
  Ca1343   1.0000 0.33344  0.74982  0.44722  Biso   1.000  Ca
  Ca1344   1.0000 0.41678  0.68731  0.44721  Biso   1.000  Ca
  Ca1345   1.0000 0.47006  0.71838  0.46097  Biso   1.000  Ca
  P805     1.0000 0.49636  0.71838  0.48881  Biso   1.000  P 
  O3497    1.0000 0.35984  0.71838  0.45004  Biso   1.000  O 
  O3498    1.0000 0.26963  0.71838  0.49134  Biso   1.000  O 
  Ca1346   1.0000 0.37429  0.71838  0.47500  Biso   1.000  Ca
  P806     1.0000 0.32904  0.71838  0.47819  Biso   1.000  P 
  O3499    1.0000 0.31700  0.71838  0.46298  Biso   1.000  O 
  O3500    1.0000 0.31449  0.71838  0.49206  Biso   1.000  O 
  Ca1347   1.0000 0.28099  0.71838  0.45990  Biso   1.000  Ca
  P807     1.0000 0.42495  0.71838  0.48308  Biso   1.000  P 
  O3501    1.0000 0.44850  0.71838  0.48285  Biso   1.000  O 
  O3502    1.0000 0.41622  0.71838  0.46667  Biso   1.000  O 
  Ca1348   1.0000 0.40518  0.65589  0.48768  Biso   1.000  Ca
  P808     1.0000 0.37886  0.65589  0.45983  Biso   1.000  P 
  O3503    1.0000 0.26539  0.65589  0.49861  Biso   1.000  O 
  O3504    1.0000 0.35560  0.65589  0.45731  Biso   1.000  O 
  Ca1349   1.0000 0.25093  0.65589  0.47365  Biso   1.000  Ca
  P809     1.0000 0.29619  0.65589  0.47046  Biso   1.000  P 
  O3505    1.0000 0.30822  0.65589  0.48568  Biso   1.000  O 
  O3506    1.0000 0.31073  0.65589  0.45658  Biso   1.000  O 
  Ca1350   1.0000 0.34422  0.65589  0.48875  Biso   1.000  Ca
  P810     1.0000 0.45028  0.65589  0.46557  Biso   1.000  P 
  O3507    1.0000 0.42672  0.65589  0.46579  Biso   1.000  O 
  O3508    1.0000 0.45900  0.65589  0.48197  Biso   1.000  O 
  O3509    1.0000 0.25011  0.64938  0.44722  Biso   1.000  O 
  O3510    1.0000 0.25011  0.71187  0.44722  Biso   1.000  O 
  H269     1.0000 0.25011  0.62920  0.44722  Biso   1.000  H 
  H270     1.0000 0.25022  0.69169  0.44717  Biso   1.000  H 
  O3511    1.0000 0.36442  0.74085  0.53404  Biso   1.000  O 
  O3512    1.0000 0.46786  0.74085  0.53239  Biso   1.000  O 
  O3513    1.0000 0.29305  0.74085  0.54629  Biso   1.000  O 
  O3514    1.0000 0.26080  0.67835  0.52304  Biso   1.000  O 
  O3515    1.0000 0.40736  0.67835  0.52469  Biso   1.000  O 
  O3516    1.0000 0.33217  0.67835  0.51079  Biso   1.000  O 
  O3517    1.0000 0.26080  0.63342  0.52304  Biso   1.000  O 
  O3518    1.0000 0.40736  0.63342  0.52469  Biso   1.000  O 
  O3519    1.0000 0.33217  0.63342  0.51079  Biso   1.000  O 
  O3520    1.0000 0.36442  0.69593  0.53404  Biso   1.000  O 
  O3521    1.0000 0.46786  0.69593  0.53239  Biso   1.000  O 
  O3522    1.0000 0.29305  0.69593  0.54629  Biso   1.000  O 
  Ca1351   1.0000 0.29178  0.74945  0.50143  Biso   1.000  Ca
  Ca1352   1.0000 0.45844  0.68696  0.50144  Biso   1.000  Ca
  Ca1353   1.0000 0.45844  0.74982  0.50144  Biso   1.000  Ca
  Ca1354   1.0000 0.29178  0.68731  0.50143  Biso   1.000  Ca
  Ca1355   1.0000 0.34506  0.71838  0.51519  Biso   1.000  Ca
  P811     1.0000 0.37136  0.71838  0.54303  Biso   1.000  P 
  O3523    1.0000 0.48484  0.71838  0.50426  Biso   1.000  O 
  O3524    1.0000 0.39463  0.71838  0.54556  Biso   1.000  O 
  Ca1356   1.0000 0.49929  0.71838  0.52922  Biso   1.000  Ca
  P812     1.0000 0.45404  0.71838  0.53241  Biso   1.000  P 
  O3525    1.0000 0.44200  0.71838  0.51720  Biso   1.000  O 
  O3526    1.0000 0.43949  0.71838  0.54628  Biso   1.000  O 
  Ca1357   1.0000 0.40599  0.71838  0.51412  Biso   1.000  Ca
  P813     1.0000 0.29995  0.71838  0.53729  Biso   1.000  P 
  O3527    1.0000 0.32350  0.71838  0.53707  Biso   1.000  O 
  O3528    1.0000 0.29122  0.71838  0.52089  Biso   1.000  O 
  Ca1358   1.0000 0.28018  0.65589  0.54190  Biso   1.000  Ca
  P814     1.0000 0.25386  0.65589  0.51405  Biso   1.000  P 
  O3529    1.0000 0.39039  0.65589  0.55283  Biso   1.000  O 
  O3530    1.0000 0.48060  0.65589  0.51152  Biso   1.000  O 
  Ca1359   1.0000 0.37593  0.65589  0.52786  Biso   1.000  Ca
  P815     1.0000 0.42119  0.65589  0.52468  Biso   1.000  P 
  O3531    1.0000 0.43322  0.65589  0.53989  Biso   1.000  O 
  O3532    1.0000 0.43573  0.65589  0.51080  Biso   1.000  O 
  Ca1360   1.0000 0.46922  0.65589  0.54297  Biso   1.000  Ca
  P816     1.0000 0.32528  0.65589  0.51979  Biso   1.000  P 
  O3533    1.0000 0.30172  0.65589  0.52001  Biso   1.000  O 
  O3534    1.0000 0.33400  0.65589  0.53619  Biso   1.000  O 
  O3535    1.0000 0.37511  0.64938  0.50143  Biso   1.000  O 
  O3536    1.0000 0.37511  0.71187  0.50143  Biso   1.000  O 
  H271     1.0000 0.37511  0.62920  0.50143  Biso   1.000  H 
  H272     1.0000 0.37522  0.69169  0.50139  Biso   1.000  H 
  O3537    1.0000 0.48942  0.74085  0.58826  Biso   1.000  O 
  O3538    1.0000 0.34286  0.74085  0.58661  Biso   1.000  O 
  O3539    1.0000 0.41805  0.74085  0.60051  Biso   1.000  O 
  O3540    1.0000 0.38580  0.67835  0.57726  Biso   1.000  O 
  O3541    1.0000 0.28236  0.67835  0.57891  Biso   1.000  O 
  O3542    1.0000 0.45717  0.67835  0.56500  Biso   1.000  O 
  O3543    1.0000 0.38580  0.63342  0.57726  Biso   1.000  O 
  O3544    1.0000 0.28236  0.63342  0.57891  Biso   1.000  O 
  O3545    1.0000 0.45717  0.63342  0.56500  Biso   1.000  O 
  O3546    1.0000 0.48942  0.69593  0.58826  Biso   1.000  O 
  O3547    1.0000 0.34286  0.69593  0.58661  Biso   1.000  O 
  O3548    1.0000 0.41805  0.69593  0.60051  Biso   1.000  O 
  Ca1361   1.0000 0.41678  0.74945  0.55565  Biso   1.000  Ca
  Ca1362   1.0000 0.33344  0.68696  0.55565  Biso   1.000  Ca
  Ca1363   1.0000 0.33344  0.74982  0.55565  Biso   1.000  Ca
  Ca1364   1.0000 0.41678  0.68731  0.55565  Biso   1.000  Ca
  Ca1365   1.0000 0.47006  0.71838  0.56941  Biso   1.000  Ca
  P817     1.0000 0.49636  0.71838  0.59725  Biso   1.000  P 
  O3549    1.0000 0.35984  0.71838  0.55847  Biso   1.000  O 
  O3550    1.0000 0.26963  0.71838  0.59978  Biso   1.000  O 
  Ca1366   1.0000 0.37429  0.71838  0.58343  Biso   1.000  Ca
  P818     1.0000 0.32904  0.71838  0.58662  Biso   1.000  P 
  O3551    1.0000 0.31700  0.71838  0.57141  Biso   1.000  O 
  O3552    1.0000 0.31449  0.71838  0.60050  Biso   1.000  O 
  Ca1367   1.0000 0.28099  0.71838  0.56834  Biso   1.000  Ca
  P819     1.0000 0.42495  0.71838  0.59151  Biso   1.000  P 
  O3553    1.0000 0.44850  0.71838  0.59129  Biso   1.000  O 
  O3554    1.0000 0.41622  0.71838  0.57511  Biso   1.000  O 
  Ca1368   1.0000 0.40518  0.65589  0.59611  Biso   1.000  Ca
  P820     1.0000 0.37886  0.65589  0.56827  Biso   1.000  P 
  O3555    1.0000 0.26539  0.65589  0.60705  Biso   1.000  O 
  O3556    1.0000 0.35560  0.65589  0.56574  Biso   1.000  O 
  Ca1369   1.0000 0.25093  0.65589  0.58208  Biso   1.000  Ca
  P821     1.0000 0.29619  0.65589  0.57890  Biso   1.000  P 
  O3557    1.0000 0.30822  0.65589  0.59411  Biso   1.000  O 
  O3558    1.0000 0.31073  0.65589  0.56502  Biso   1.000  O 
  Ca1370   1.0000 0.34422  0.65589  0.59719  Biso   1.000  Ca
  P822     1.0000 0.45028  0.65589  0.57400  Biso   1.000  P 
  O3559    1.0000 0.42672  0.65589  0.57423  Biso   1.000  O 
  O3560    1.0000 0.45900  0.65589  0.59041  Biso   1.000  O 
  O3561    1.0000 0.25011  0.64938  0.55565  Biso   1.000  O 
  O3562    1.0000 0.25011  0.71187  0.55565  Biso   1.000  O 
  H273     1.0000 0.25011  0.62920  0.55565  Biso   1.000  H 
  H274     1.0000 0.25022  0.69169  0.55561  Biso   1.000  H 
  O3563    1.0000 0.36442  0.74085  0.64248  Biso   1.000  O 
  O3564    1.0000 0.46786  0.74085  0.64083  Biso   1.000  O 
  O3565    1.0000 0.29305  0.74085  0.65473  Biso   1.000  O 
  O3566    1.0000 0.26080  0.67835  0.63147  Biso   1.000  O 
  O3567    1.0000 0.40736  0.67835  0.63313  Biso   1.000  O 
  O3568    1.0000 0.33217  0.67835  0.61922  Biso   1.000  O 
  O3569    1.0000 0.26080  0.63342  0.63147  Biso   1.000  O 
  O3570    1.0000 0.40736  0.63342  0.63313  Biso   1.000  O 
  O3571    1.0000 0.33217  0.63342  0.61922  Biso   1.000  O 
  O3572    1.0000 0.36442  0.69593  0.64248  Biso   1.000  O 
  O3573    1.0000 0.46786  0.69593  0.64083  Biso   1.000  O 
  O3574    1.0000 0.29305  0.69593  0.65473  Biso   1.000  O 
  Ca1371   1.0000 0.29178  0.74945  0.60986  Biso   1.000  Ca
  Ca1372   1.0000 0.45844  0.68696  0.60987  Biso   1.000  Ca
  Ca1373   1.0000 0.45844  0.74982  0.60987  Biso   1.000  Ca
  Ca1374   1.0000 0.29178  0.68731  0.60986  Biso   1.000  Ca
  Ca1375   1.0000 0.34506  0.71838  0.62363  Biso   1.000  Ca
  P823     1.0000 0.37136  0.71838  0.65147  Biso   1.000  P 
  O3575    1.0000 0.48484  0.71838  0.61269  Biso   1.000  O 
  O3576    1.0000 0.39463  0.71838  0.65400  Biso   1.000  O 
  Ca1376   1.0000 0.49929  0.71838  0.63765  Biso   1.000  Ca
  P824     1.0000 0.45404  0.71838  0.64084  Biso   1.000  P 
  O3577    1.0000 0.44200  0.71838  0.62563  Biso   1.000  O 
  O3578    1.0000 0.43949  0.71838  0.65471  Biso   1.000  O 
  Ca1377   1.0000 0.40599  0.71838  0.62255  Biso   1.000  Ca
  P825     1.0000 0.29995  0.71838  0.64573  Biso   1.000  P 
  O3579    1.0000 0.32350  0.71838  0.64551  Biso   1.000  O 
  O3580    1.0000 0.29122  0.71838  0.62933  Biso   1.000  O 
  Ca1378   1.0000 0.28018  0.65589  0.65033  Biso   1.000  Ca
  P826     1.0000 0.25386  0.65589  0.62248  Biso   1.000  P 
  O3581    1.0000 0.39039  0.65589  0.66127  Biso   1.000  O 
  O3582    1.0000 0.48060  0.65589  0.61996  Biso   1.000  O 
  Ca1379   1.0000 0.37593  0.65589  0.63630  Biso   1.000  Ca
  P827     1.0000 0.42119  0.65589  0.63312  Biso   1.000  P 
  O3583    1.0000 0.43322  0.65589  0.64833  Biso   1.000  O 
  O3584    1.0000 0.43573  0.65589  0.61924  Biso   1.000  O 
  Ca1380   1.0000 0.46922  0.65589  0.65141  Biso   1.000  Ca
  P828     1.0000 0.32528  0.65589  0.62822  Biso   1.000  P 
  O3585    1.0000 0.30172  0.65589  0.62845  Biso   1.000  O 
  O3586    1.0000 0.33400  0.65589  0.64462  Biso   1.000  O 
  O3587    1.0000 0.37511  0.64938  0.60987  Biso   1.000  O 
  O3588    1.0000 0.37511  0.71187  0.60987  Biso   1.000  O 
  H275     1.0000 0.37511  0.62920  0.60987  Biso   1.000  H 
  H276     1.0000 0.37522  0.69169  0.60982  Biso   1.000  H 
  O3589    1.0000 0.48942  0.74085  0.69670  Biso   1.000  O 
  O3590    1.0000 0.34286  0.74085  0.69504  Biso   1.000  O 
  O3591    1.0000 0.41805  0.74085  0.70895  Biso   1.000  O 
  O3592    1.0000 0.38580  0.67835  0.68569  Biso   1.000  O 
  O3593    1.0000 0.28236  0.67835  0.68734  Biso   1.000  O 
  O3594    1.0000 0.45717  0.67835  0.67344  Biso   1.000  O 
  O3595    1.0000 0.38580  0.63342  0.68569  Biso   1.000  O 
  O3596    1.0000 0.28236  0.63342  0.68734  Biso   1.000  O 
  O3597    1.0000 0.45717  0.63342  0.67344  Biso   1.000  O 
  O3598    1.0000 0.48942  0.69593  0.69670  Biso   1.000  O 
  O3599    1.0000 0.34286  0.69593  0.69504  Biso   1.000  O 
  O3600    1.0000 0.41805  0.69593  0.70895  Biso   1.000  O 
  Ca1381   1.0000 0.41678  0.74945  0.66408  Biso   1.000  Ca
  Ca1382   1.0000 0.33344  0.68696  0.66409  Biso   1.000  Ca
  Ca1383   1.0000 0.33344  0.74982  0.66409  Biso   1.000  Ca
  Ca1384   1.0000 0.41678  0.68731  0.66408  Biso   1.000  Ca
  Ca1385   1.0000 0.47006  0.71838  0.67784  Biso   1.000  Ca
  P829     1.0000 0.49636  0.71838  0.70569  Biso   1.000  P 
  O3601    1.0000 0.35984  0.71838  0.66691  Biso   1.000  O 
  O3602    1.0000 0.26963  0.71838  0.70822  Biso   1.000  O 
  Ca1386   1.0000 0.37429  0.71838  0.69187  Biso   1.000  Ca
  P830     1.0000 0.32904  0.71838  0.69506  Biso   1.000  P 
  O3603    1.0000 0.31700  0.71838  0.67985  Biso   1.000  O 
  O3604    1.0000 0.31449  0.71838  0.70893  Biso   1.000  O 
  Ca1387   1.0000 0.28099  0.71838  0.67677  Biso   1.000  Ca
  P831     1.0000 0.42495  0.71838  0.69995  Biso   1.000  P 
  O3605    1.0000 0.44850  0.71838  0.69973  Biso   1.000  O 
  O3606    1.0000 0.41622  0.71838  0.68355  Biso   1.000  O 
  Ca1388   1.0000 0.40518  0.65589  0.70455  Biso   1.000  Ca
  P832     1.0000 0.37886  0.65589  0.67670  Biso   1.000  P 
  O3607    1.0000 0.26539  0.65589  0.71548  Biso   1.000  O 
  O3608    1.0000 0.35560  0.65589  0.67418  Biso   1.000  O 
  Ca1389   1.0000 0.25093  0.65589  0.69052  Biso   1.000  Ca
  P833     1.0000 0.29619  0.65589  0.68733  Biso   1.000  P 
  O3609    1.0000 0.30822  0.65589  0.70255  Biso   1.000  O 
  O3610    1.0000 0.31073  0.65589  0.67346  Biso   1.000  O 
  Ca1390   1.0000 0.34422  0.65589  0.70563  Biso   1.000  Ca
  P834     1.0000 0.45028  0.65589  0.68244  Biso   1.000  P 
  O3611    1.0000 0.42672  0.65589  0.68266  Biso   1.000  O 
  O3612    1.0000 0.45900  0.65589  0.69884  Biso   1.000  O 
  O3613    1.0000 0.25011  0.64938  0.66409  Biso   1.000  O 
  O3614    1.0000 0.25011  0.71187  0.66409  Biso   1.000  O 
  H277     1.0000 0.25011  0.62920  0.66409  Biso   1.000  H 
  H278     1.0000 0.25022  0.69169  0.66404  Biso   1.000  H 
  O3615    1.0000 0.36442  0.74085  0.75091  Biso   1.000  O 
  O3616    1.0000 0.46786  0.74085  0.74926  Biso   1.000  O 
  O3617    1.0000 0.29305  0.74085  0.76317  Biso   1.000  O 
  O3618    1.0000 0.26080  0.67835  0.73991  Biso   1.000  O 
  O3619    1.0000 0.40736  0.67835  0.74156  Biso   1.000  O 
  O3620    1.0000 0.33217  0.67835  0.72766  Biso   1.000  O 
  O3621    1.0000 0.26080  0.63342  0.73991  Biso   1.000  O 
  O3622    1.0000 0.40736  0.63342  0.74156  Biso   1.000  O 
  O3623    1.0000 0.33217  0.63342  0.72766  Biso   1.000  O 
  O3624    1.0000 0.36442  0.69593  0.75091  Biso   1.000  O 
  O3625    1.0000 0.46786  0.69593  0.74926  Biso   1.000  O 
  O3626    1.0000 0.29305  0.69593  0.76317  Biso   1.000  O 
  Ca1391   1.0000 0.29178  0.74945  0.71830  Biso   1.000  Ca
  Ca1392   1.0000 0.45844  0.68696  0.71831  Biso   1.000  Ca
  Ca1393   1.0000 0.45844  0.74982  0.71831  Biso   1.000  Ca
  Ca1394   1.0000 0.29178  0.68731  0.71830  Biso   1.000  Ca
  Ca1395   1.0000 0.34506  0.71838  0.73206  Biso   1.000  Ca
  P835     1.0000 0.37136  0.71838  0.75990  Biso   1.000  P 
  O3627    1.0000 0.48484  0.71838  0.72113  Biso   1.000  O 
  O3628    1.0000 0.39463  0.71838  0.76243  Biso   1.000  O 
  Ca1396   1.0000 0.49929  0.71838  0.74609  Biso   1.000  Ca
  P836     1.0000 0.45404  0.71838  0.74928  Biso   1.000  P 
  O3629    1.0000 0.44200  0.71838  0.73407  Biso   1.000  O 
  O3630    1.0000 0.43949  0.71838  0.76315  Biso   1.000  O 
  Ca1397   1.0000 0.40599  0.71838  0.73099  Biso   1.000  Ca
  P837     1.0000 0.29995  0.71838  0.75417  Biso   1.000  P 
  O3631    1.0000 0.32350  0.71838  0.75394  Biso   1.000  O 
  O3632    1.0000 0.29122  0.71838  0.73776  Biso   1.000  O 
  Ca1398   1.0000 0.28018  0.65589  0.75877  Biso   1.000  Ca
  P838     1.0000 0.25386  0.65589  0.73092  Biso   1.000  P 
  O3633    1.0000 0.39039  0.65589  0.76970  Biso   1.000  O 
  O3634    1.0000 0.48060  0.65589  0.72840  Biso   1.000  O 
  Ca1399   1.0000 0.37593  0.65589  0.74474  Biso   1.000  Ca
  P839     1.0000 0.42119  0.65589  0.74155  Biso   1.000  P 
  O3635    1.0000 0.43322  0.65589  0.75677  Biso   1.000  O 
  O3636    1.0000 0.43573  0.65589  0.72767  Biso   1.000  O 
  Ca1400   1.0000 0.46922  0.65589  0.75984  Biso   1.000  Ca
  P840     1.0000 0.32528  0.65589  0.73666  Biso   1.000  P 
  O3637    1.0000 0.30172  0.65589  0.73688  Biso   1.000  O 
  O3638    1.0000 0.33400  0.65589  0.75306  Biso   1.000  O 
  O3639    1.0000 0.37511  0.64938  0.71831  Biso   1.000  O 
  O3640    1.0000 0.37511  0.71187  0.71831  Biso   1.000  O 
  H279     1.0000 0.37511  0.62920  0.71831  Biso   1.000  H 
  H280     1.0000 0.37522  0.69169  0.71826  Biso   1.000  H 
  O3641    1.0000 0.48942  0.86585  0.26295  Biso   1.000  O 
  O3642    1.0000 0.34286  0.86585  0.26130  Biso   1.000  O 
  O3643    1.0000 0.41805  0.86585  0.27520  Biso   1.000  O 
  O3644    1.0000 0.38580  0.80335  0.25195  Biso   1.000  O 
  O3645    1.0000 0.28236  0.80335  0.25360  Biso   1.000  O 
  O3646    1.0000 0.45717  0.80335  0.23970  Biso   1.000  O 
  O3647    1.0000 0.38580  0.75842  0.25195  Biso   1.000  O 
  O3648    1.0000 0.28236  0.75842  0.25360  Biso   1.000  O 
  O3649    1.0000 0.45717  0.75842  0.23970  Biso   1.000  O 
  O3650    1.0000 0.48942  0.82093  0.26295  Biso   1.000  O 
  O3651    1.0000 0.34286  0.82093  0.26130  Biso   1.000  O 
  O3652    1.0000 0.41805  0.82093  0.27520  Biso   1.000  O 
  Ca1401   1.0000 0.41678  0.87445  0.23034  Biso   1.000  Ca
  Ca1402   1.0000 0.33344  0.81196  0.23035  Biso   1.000  Ca
  Ca1403   1.0000 0.33344  0.87482  0.23035  Biso   1.000  Ca
  Ca1404   1.0000 0.41678  0.81231  0.23034  Biso   1.000  Ca
  Ca1405   1.0000 0.47006  0.84338  0.24410  Biso   1.000  Ca
  P841     1.0000 0.49636  0.84338  0.27194  Biso   1.000  P 
  O3653    1.0000 0.35984  0.84338  0.23317  Biso   1.000  O 
  O3654    1.0000 0.26963  0.84338  0.27447  Biso   1.000  O 
  Ca1406   1.0000 0.37429  0.84338  0.25813  Biso   1.000  Ca
  P842     1.0000 0.32904  0.84338  0.26132  Biso   1.000  P 
  O3655    1.0000 0.31700  0.84338  0.24611  Biso   1.000  O 
  O3656    1.0000 0.31449  0.84338  0.27519  Biso   1.000  O 
  Ca1407   1.0000 0.28099  0.84338  0.24303  Biso   1.000  Ca
  P843     1.0000 0.42495  0.84338  0.26620  Biso   1.000  P 
  O3657    1.0000 0.44850  0.84338  0.26598  Biso   1.000  O 
  O3658    1.0000 0.41622  0.84338  0.24980  Biso   1.000  O 
  Ca1408   1.0000 0.40518  0.78089  0.27081  Biso   1.000  Ca
  P844     1.0000 0.37886  0.78089  0.24296  Biso   1.000  P 
  O3659    1.0000 0.26539  0.78089  0.28174  Biso   1.000  O 
  O3660    1.0000 0.35560  0.78089  0.24043  Biso   1.000  O 
  Ca1409   1.0000 0.25093  0.78089  0.25677  Biso   1.000  Ca
  P845     1.0000 0.29619  0.78089  0.25359  Biso   1.000  P 
  O3661    1.0000 0.30822  0.78089  0.26880  Biso   1.000  O 
  O3662    1.0000 0.31073  0.78089  0.23971  Biso   1.000  O 
  Ca1410   1.0000 0.34422  0.78089  0.27188  Biso   1.000  Ca
  P846     1.0000 0.45028  0.78089  0.24870  Biso   1.000  P 
  O3663    1.0000 0.42672  0.78089  0.24892  Biso   1.000  O 
  O3664    1.0000 0.45900  0.78089  0.26510  Biso   1.000  O 
  O3665    1.0000 0.25011  0.77438  0.23034  Biso   1.000  O 
  O3666    1.0000 0.25011  0.83687  0.23034  Biso   1.000  O 
  H281     1.0000 0.25011  0.75420  0.23034  Biso   1.000  H 
  H282     1.0000 0.25022  0.81669  0.23030  Biso   1.000  H 
  O3667    1.0000 0.36442  0.86585  0.31717  Biso   1.000  O 
  O3668    1.0000 0.46786  0.86585  0.31552  Biso   1.000  O 
  O3669    1.0000 0.29305  0.86585  0.32942  Biso   1.000  O 
  O3670    1.0000 0.26080  0.80335  0.30617  Biso   1.000  O 
  O3671    1.0000 0.40736  0.80335  0.30782  Biso   1.000  O 
  O3672    1.0000 0.33217  0.80335  0.29391  Biso   1.000  O 
  O3673    1.0000 0.26080  0.75842  0.30617  Biso   1.000  O 
  O3674    1.0000 0.40736  0.75842  0.30782  Biso   1.000  O 
  O3675    1.0000 0.33217  0.75842  0.29391  Biso   1.000  O 
  O3676    1.0000 0.36442  0.82093  0.31717  Biso   1.000  O 
  O3677    1.0000 0.46786  0.82093  0.31552  Biso   1.000  O 
  O3678    1.0000 0.29305  0.82093  0.32942  Biso   1.000  O 
  Ca1411   1.0000 0.29178  0.87445  0.28456  Biso   1.000  Ca
  Ca1412   1.0000 0.45844  0.81196  0.28456  Biso   1.000  Ca
  Ca1413   1.0000 0.45844  0.87482  0.28456  Biso   1.000  Ca
  Ca1414   1.0000 0.29178  0.81231  0.28456  Biso   1.000  Ca
  Ca1415   1.0000 0.34506  0.84338  0.29832  Biso   1.000  Ca
  P847     1.0000 0.37136  0.84338  0.32616  Biso   1.000  P 
  O3679    1.0000 0.48484  0.84338  0.28738  Biso   1.000  O 
  O3680    1.0000 0.39463  0.84338  0.32869  Biso   1.000  O 
  Ca1416   1.0000 0.49929  0.84338  0.31234  Biso   1.000  Ca
  P848     1.0000 0.45404  0.84338  0.31554  Biso   1.000  P 
  O3681    1.0000 0.44200  0.84338  0.30033  Biso   1.000  O 
  O3682    1.0000 0.43949  0.84338  0.32941  Biso   1.000  O 
  Ca1417   1.0000 0.40599  0.84338  0.29725  Biso   1.000  Ca
  P849     1.0000 0.29995  0.84338  0.32042  Biso   1.000  P 
  O3683    1.0000 0.32350  0.84338  0.32020  Biso   1.000  O 
  O3684    1.0000 0.29122  0.84338  0.30402  Biso   1.000  O 
  Ca1418   1.0000 0.28018  0.78089  0.32502  Biso   1.000  Ca
  P850     1.0000 0.25386  0.78089  0.29718  Biso   1.000  P 
  O3685    1.0000 0.39039  0.78089  0.33596  Biso   1.000  O 
  O3686    1.0000 0.48060  0.78089  0.29465  Biso   1.000  O 
  Ca1419   1.0000 0.37593  0.78089  0.31099  Biso   1.000  Ca
  P851     1.0000 0.42119  0.78089  0.30781  Biso   1.000  P 
  O3687    1.0000 0.43322  0.78089  0.32302  Biso   1.000  O 
  O3688    1.0000 0.43573  0.78089  0.29393  Biso   1.000  O 
  Ca1420   1.0000 0.46922  0.78089  0.32610  Biso   1.000  Ca
  P852     1.0000 0.32528  0.78089  0.30291  Biso   1.000  P 
  O3689    1.0000 0.30172  0.78089  0.30314  Biso   1.000  O 
  O3690    1.0000 0.33400  0.78089  0.31932  Biso   1.000  O 
  O3691    1.0000 0.37511  0.77438  0.28456  Biso   1.000  O 
  O3692    1.0000 0.37511  0.83687  0.28456  Biso   1.000  O 
  H283     1.0000 0.37511  0.75420  0.28456  Biso   1.000  H 
  H284     1.0000 0.37522  0.81669  0.28452  Biso   1.000  H 
  O3693    1.0000 0.48942  0.86585  0.37139  Biso   1.000  O 
  O3694    1.0000 0.34286  0.86585  0.36974  Biso   1.000  O 
  O3695    1.0000 0.41805  0.86585  0.38364  Biso   1.000  O 
  O3696    1.0000 0.38580  0.80335  0.36038  Biso   1.000  O 
  O3697    1.0000 0.28236  0.80335  0.36204  Biso   1.000  O 
  O3698    1.0000 0.45717  0.80335  0.34813  Biso   1.000  O 
  O3699    1.0000 0.38580  0.75842  0.36038  Biso   1.000  O 
  O3700    1.0000 0.28236  0.75842  0.36204  Biso   1.000  O 
  O3701    1.0000 0.45717  0.75842  0.34813  Biso   1.000  O 
  O3702    1.0000 0.48942  0.82093  0.37139  Biso   1.000  O 
  O3703    1.0000 0.34286  0.82093  0.36974  Biso   1.000  O 
  O3704    1.0000 0.41805  0.82093  0.38364  Biso   1.000  O 
  Ca1421   1.0000 0.41678  0.87445  0.33877  Biso   1.000  Ca
  Ca1422   1.0000 0.33344  0.81196  0.33878  Biso   1.000  Ca
  Ca1423   1.0000 0.33344  0.87482  0.33878  Biso   1.000  Ca
  Ca1424   1.0000 0.41678  0.81231  0.33877  Biso   1.000  Ca
  Ca1425   1.0000 0.47006  0.84338  0.35254  Biso   1.000  Ca
  P853     1.0000 0.49636  0.84338  0.38038  Biso   1.000  P 
  O3705    1.0000 0.35984  0.84338  0.34160  Biso   1.000  O 
  O3706    1.0000 0.26963  0.84338  0.38291  Biso   1.000  O 
  Ca1426   1.0000 0.37429  0.84338  0.36656  Biso   1.000  Ca
  P854     1.0000 0.32904  0.84338  0.36975  Biso   1.000  P 
  O3707    1.0000 0.31700  0.84338  0.35454  Biso   1.000  O 
  O3708    1.0000 0.31449  0.84338  0.38362  Biso   1.000  O 
  Ca1427   1.0000 0.28099  0.84338  0.35146  Biso   1.000  Ca
  P855     1.0000 0.42495  0.84338  0.37464  Biso   1.000  P 
  O3709    1.0000 0.44850  0.84338  0.37442  Biso   1.000  O 
  O3710    1.0000 0.41622  0.84338  0.35824  Biso   1.000  O 
  Ca1428   1.0000 0.40518  0.78089  0.37924  Biso   1.000  Ca
  P856     1.0000 0.37886  0.78089  0.35140  Biso   1.000  P 
  O3711    1.0000 0.26539  0.78089  0.39018  Biso   1.000  O 
  O3712    1.0000 0.35560  0.78089  0.34887  Biso   1.000  O 
  Ca1429   1.0000 0.25093  0.78089  0.36521  Biso   1.000  Ca
  P857     1.0000 0.29619  0.78089  0.36203  Biso   1.000  P 
  O3713    1.0000 0.30822  0.78089  0.37724  Biso   1.000  O 
  O3714    1.0000 0.31073  0.78089  0.34815  Biso   1.000  O 
  Ca1430   1.0000 0.34422  0.78089  0.38032  Biso   1.000  Ca
  P858     1.0000 0.45028  0.78089  0.35713  Biso   1.000  P 
  O3715    1.0000 0.42672  0.78089  0.35736  Biso   1.000  O 
  O3716    1.0000 0.45900  0.78089  0.37353  Biso   1.000  O 
  O3717    1.0000 0.25011  0.77438  0.33878  Biso   1.000  O 
  O3718    1.0000 0.25011  0.83687  0.33878  Biso   1.000  O 
  H285     1.0000 0.25011  0.75420  0.33878  Biso   1.000  H 
  H286     1.0000 0.25022  0.81669  0.33873  Biso   1.000  H 
  O3719    1.0000 0.36442  0.86585  0.42561  Biso   1.000  O 
  O3720    1.0000 0.46786  0.86585  0.42395  Biso   1.000  O 
  O3721    1.0000 0.29305  0.86585  0.43786  Biso   1.000  O 
  O3722    1.0000 0.26080  0.80335  0.41460  Biso   1.000  O 
  O3723    1.0000 0.40736  0.80335  0.41625  Biso   1.000  O 
  O3724    1.0000 0.33217  0.80335  0.40235  Biso   1.000  O 
  O3725    1.0000 0.26080  0.75842  0.41460  Biso   1.000  O 
  O3726    1.0000 0.40736  0.75842  0.41625  Biso   1.000  O 
  O3727    1.0000 0.33217  0.75842  0.40235  Biso   1.000  O 
  O3728    1.0000 0.36442  0.82093  0.42561  Biso   1.000  O 
  O3729    1.0000 0.46786  0.82093  0.42395  Biso   1.000  O 
  O3730    1.0000 0.29305  0.82093  0.43786  Biso   1.000  O 
  Ca1431   1.0000 0.29178  0.87445  0.39299  Biso   1.000  Ca
  Ca1432   1.0000 0.45844  0.81196  0.39300  Biso   1.000  Ca
  Ca1433   1.0000 0.45844  0.87482  0.39300  Biso   1.000  Ca
  Ca1434   1.0000 0.29178  0.81231  0.39299  Biso   1.000  Ca
  Ca1435   1.0000 0.34506  0.84338  0.40675  Biso   1.000  Ca
  P859     1.0000 0.37136  0.84338  0.43460  Biso   1.000  P 
  O3731    1.0000 0.48484  0.84338  0.39582  Biso   1.000  O 
  O3732    1.0000 0.39463  0.84338  0.43713  Biso   1.000  O 
  Ca1436   1.0000 0.49929  0.84338  0.42078  Biso   1.000  Ca
  P860     1.0000 0.45404  0.84338  0.42397  Biso   1.000  P 
  O3733    1.0000 0.44200  0.84338  0.40876  Biso   1.000  O 
  O3734    1.0000 0.43949  0.84338  0.43784  Biso   1.000  O 
  Ca1437   1.0000 0.40599  0.84338  0.40568  Biso   1.000  Ca
  P861     1.0000 0.29995  0.84338  0.42886  Biso   1.000  P 
  O3735    1.0000 0.32350  0.84338  0.42864  Biso   1.000  O 
  O3736    1.0000 0.29122  0.84338  0.41246  Biso   1.000  O 
  Ca1438   1.0000 0.28018  0.78089  0.43346  Biso   1.000  Ca
  P862     1.0000 0.25386  0.78089  0.40561  Biso   1.000  P 
  O3737    1.0000 0.39039  0.78089  0.44439  Biso   1.000  O 
  O3738    1.0000 0.48060  0.78089  0.40309  Biso   1.000  O 
  Ca1439   1.0000 0.37593  0.78089  0.41943  Biso   1.000  Ca
  P863     1.0000 0.42119  0.78089  0.41624  Biso   1.000  P 
  O3739    1.0000 0.43322  0.78089  0.43146  Biso   1.000  O 
  O3740    1.0000 0.43573  0.78089  0.40237  Biso   1.000  O 
  Ca1440   1.0000 0.46922  0.78089  0.43454  Biso   1.000  Ca
  P864     1.0000 0.32528  0.78089  0.41135  Biso   1.000  P 
  O3741    1.0000 0.30172  0.78089  0.41157  Biso   1.000  O 
  O3742    1.0000 0.33400  0.78089  0.42775  Biso   1.000  O 
  O3743    1.0000 0.37511  0.77438  0.39300  Biso   1.000  O 
  O3744    1.0000 0.37511  0.83687  0.39300  Biso   1.000  O 
  H287     1.0000 0.37511  0.75420  0.39300  Biso   1.000  H 
  H288     1.0000 0.37522  0.81669  0.39295  Biso   1.000  H 
  O3745    1.0000 0.48942  0.86585  0.47982  Biso   1.000  O 
  O3746    1.0000 0.34286  0.86585  0.47817  Biso   1.000  O 
  O3747    1.0000 0.41805  0.86585  0.49208  Biso   1.000  O 
  O3748    1.0000 0.38580  0.80335  0.46882  Biso   1.000  O 
  O3749    1.0000 0.28236  0.80335  0.47047  Biso   1.000  O 
  O3750    1.0000 0.45717  0.80335  0.45657  Biso   1.000  O 
  O3751    1.0000 0.38580  0.75842  0.46882  Biso   1.000  O 
  O3752    1.0000 0.28236  0.75842  0.47047  Biso   1.000  O 
  O3753    1.0000 0.45717  0.75842  0.45657  Biso   1.000  O 
  O3754    1.0000 0.48942  0.82093  0.47982  Biso   1.000  O 
  O3755    1.0000 0.34286  0.82093  0.47817  Biso   1.000  O 
  O3756    1.0000 0.41805  0.82093  0.49208  Biso   1.000  O 
  Ca1441   1.0000 0.41678  0.87445  0.44721  Biso   1.000  Ca
  Ca1442   1.0000 0.33344  0.81196  0.44722  Biso   1.000  Ca
  Ca1443   1.0000 0.33344  0.87482  0.44722  Biso   1.000  Ca
  Ca1444   1.0000 0.41678  0.81231  0.44721  Biso   1.000  Ca
  Ca1445   1.0000 0.47006  0.84338  0.46097  Biso   1.000  Ca
  P865     1.0000 0.49636  0.84338  0.48881  Biso   1.000  P 
  O3757    1.0000 0.35984  0.84338  0.45004  Biso   1.000  O 
  O3758    1.0000 0.26963  0.84338  0.49134  Biso   1.000  O 
  Ca1446   1.0000 0.37429  0.84338  0.47500  Biso   1.000  Ca
  P866     1.0000 0.32904  0.84338  0.47819  Biso   1.000  P 
  O3759    1.0000 0.31700  0.84338  0.46298  Biso   1.000  O 
  O3760    1.0000 0.31449  0.84338  0.49206  Biso   1.000  O 
  Ca1447   1.0000 0.28099  0.84338  0.45990  Biso   1.000  Ca
  P867     1.0000 0.42495  0.84338  0.48308  Biso   1.000  P 
  O3761    1.0000 0.44850  0.84338  0.48285  Biso   1.000  O 
  O3762    1.0000 0.41622  0.84338  0.46667  Biso   1.000  O 
  Ca1448   1.0000 0.40518  0.78089  0.48768  Biso   1.000  Ca
  P868     1.0000 0.37886  0.78089  0.45983  Biso   1.000  P 
  O3763    1.0000 0.26539  0.78089  0.49861  Biso   1.000  O 
  O3764    1.0000 0.35560  0.78089  0.45731  Biso   1.000  O 
  Ca1449   1.0000 0.25093  0.78089  0.47365  Biso   1.000  Ca
  P869     1.0000 0.29619  0.78089  0.47046  Biso   1.000  P 
  O3765    1.0000 0.30822  0.78089  0.48568  Biso   1.000  O 
  O3766    1.0000 0.31073  0.78089  0.45658  Biso   1.000  O 
  Ca1450   1.0000 0.34422  0.78089  0.48875  Biso   1.000  Ca
  P870     1.0000 0.45028  0.78089  0.46557  Biso   1.000  P 
  O3767    1.0000 0.42672  0.78089  0.46579  Biso   1.000  O 
  O3768    1.0000 0.45900  0.78089  0.48197  Biso   1.000  O 
  O3769    1.0000 0.25011  0.77438  0.44722  Biso   1.000  O 
  O3770    1.0000 0.25011  0.83687  0.44722  Biso   1.000  O 
  H289     1.0000 0.25011  0.75420  0.44722  Biso   1.000  H 
  H290     1.0000 0.25022  0.81669  0.44717  Biso   1.000  H 
  O3771    1.0000 0.36442  0.86585  0.53404  Biso   1.000  O 
  O3772    1.0000 0.46786  0.86585  0.53239  Biso   1.000  O 
  O3773    1.0000 0.29305  0.86585  0.54629  Biso   1.000  O 
  O3774    1.0000 0.26080  0.80335  0.52304  Biso   1.000  O 
  O3775    1.0000 0.40736  0.80335  0.52469  Biso   1.000  O 
  O3776    1.0000 0.33217  0.80335  0.51079  Biso   1.000  O 
  O3777    1.0000 0.26080  0.75842  0.52304  Biso   1.000  O 
  O3778    1.0000 0.40736  0.75842  0.52469  Biso   1.000  O 
  O3779    1.0000 0.33217  0.75842  0.51079  Biso   1.000  O 
  O3780    1.0000 0.36442  0.82093  0.53404  Biso   1.000  O 
  O3781    1.0000 0.46786  0.82093  0.53239  Biso   1.000  O 
  O3782    1.0000 0.29305  0.82093  0.54629  Biso   1.000  O 
  Ca1451   1.0000 0.29178  0.87445  0.50143  Biso   1.000  Ca
  Ca1452   1.0000 0.45844  0.81196  0.50144  Biso   1.000  Ca
  Ca1453   1.0000 0.45844  0.87482  0.50144  Biso   1.000  Ca
  Ca1454   1.0000 0.29178  0.81231  0.50143  Biso   1.000  Ca
  Ca1455   1.0000 0.34506  0.84338  0.51519  Biso   1.000  Ca
  P871     1.0000 0.37136  0.84338  0.54303  Biso   1.000  P 
  O3783    1.0000 0.48484  0.84338  0.50426  Biso   1.000  O 
  O3784    1.0000 0.39463  0.84338  0.54556  Biso   1.000  O 
  Ca1456   1.0000 0.49929  0.84338  0.52922  Biso   1.000  Ca
  P872     1.0000 0.45404  0.84338  0.53241  Biso   1.000  P 
  O3785    1.0000 0.44200  0.84338  0.51720  Biso   1.000  O 
  O3786    1.0000 0.43949  0.84338  0.54628  Biso   1.000  O 
  Ca1457   1.0000 0.40599  0.84338  0.51412  Biso   1.000  Ca
  P873     1.0000 0.29995  0.84338  0.53729  Biso   1.000  P 
  O3787    1.0000 0.32350  0.84338  0.53707  Biso   1.000  O 
  O3788    1.0000 0.29122  0.84338  0.52089  Biso   1.000  O 
  Ca1458   1.0000 0.28018  0.78089  0.54190  Biso   1.000  Ca
  P874     1.0000 0.25386  0.78089  0.51405  Biso   1.000  P 
  O3789    1.0000 0.39039  0.78089  0.55283  Biso   1.000  O 
  O3790    1.0000 0.48060  0.78089  0.51152  Biso   1.000  O 
  Ca1459   1.0000 0.37593  0.78089  0.52786  Biso   1.000  Ca
  P875     1.0000 0.42119  0.78089  0.52468  Biso   1.000  P 
  O3791    1.0000 0.43322  0.78089  0.53989  Biso   1.000  O 
  O3792    1.0000 0.43573  0.78089  0.51080  Biso   1.000  O 
  Ca1460   1.0000 0.46922  0.78089  0.54297  Biso   1.000  Ca
  P876     1.0000 0.32528  0.78089  0.51979  Biso   1.000  P 
  O3793    1.0000 0.30172  0.78089  0.52001  Biso   1.000  O 
  O3794    1.0000 0.33400  0.78089  0.53619  Biso   1.000  O 
  O3795    1.0000 0.37511  0.77438  0.50143  Biso   1.000  O 
  O3796    1.0000 0.37511  0.83687  0.50143  Biso   1.000  O 
  H291     1.0000 0.37511  0.75420  0.50143  Biso   1.000  H 
  H292     1.0000 0.37522  0.81669  0.50139  Biso   1.000  H 
  O3797    1.0000 0.48942  0.86585  0.58826  Biso   1.000  O 
  O3798    1.0000 0.34286  0.86585  0.58661  Biso   1.000  O 
  O3799    1.0000 0.41805  0.86585  0.60051  Biso   1.000  O 
  O3800    1.0000 0.38580  0.80335  0.57726  Biso   1.000  O 
  O3801    1.0000 0.28236  0.80335  0.57891  Biso   1.000  O 
  O3802    1.0000 0.45717  0.80335  0.56500  Biso   1.000  O 
  O3803    1.0000 0.38580  0.75842  0.57726  Biso   1.000  O 
  O3804    1.0000 0.28236  0.75842  0.57891  Biso   1.000  O 
  O3805    1.0000 0.45717  0.75842  0.56500  Biso   1.000  O 
  O3806    1.0000 0.48942  0.82093  0.58826  Biso   1.000  O 
  O3807    1.0000 0.34286  0.82093  0.58661  Biso   1.000  O 
  O3808    1.0000 0.41805  0.82093  0.60051  Biso   1.000  O 
  Ca1461   1.0000 0.41678  0.87445  0.55565  Biso   1.000  Ca
  Ca1462   1.0000 0.33344  0.81196  0.55565  Biso   1.000  Ca
  Ca1463   1.0000 0.33344  0.87482  0.55565  Biso   1.000  Ca
  Ca1464   1.0000 0.41678  0.81231  0.55565  Biso   1.000  Ca
  Ca1465   1.0000 0.47006  0.84338  0.56941  Biso   1.000  Ca
  P877     1.0000 0.49636  0.84338  0.59725  Biso   1.000  P 
  O3809    1.0000 0.35984  0.84338  0.55847  Biso   1.000  O 
  O3810    1.0000 0.26963  0.84338  0.59978  Biso   1.000  O 
  Ca1466   1.0000 0.37429  0.84338  0.58343  Biso   1.000  Ca
  P878     1.0000 0.32904  0.84338  0.58662  Biso   1.000  P 
  O3811    1.0000 0.31700  0.84338  0.57141  Biso   1.000  O 
  O3812    1.0000 0.31449  0.84338  0.60050  Biso   1.000  O 
  Ca1467   1.0000 0.28099  0.84338  0.56834  Biso   1.000  Ca
  P879     1.0000 0.42495  0.84338  0.59151  Biso   1.000  P 
  O3813    1.0000 0.44850  0.84338  0.59129  Biso   1.000  O 
  O3814    1.0000 0.41622  0.84338  0.57511  Biso   1.000  O 
  Ca1468   1.0000 0.40518  0.78089  0.59611  Biso   1.000  Ca
  P880     1.0000 0.37886  0.78089  0.56827  Biso   1.000  P 
  O3815    1.0000 0.26539  0.78089  0.60705  Biso   1.000  O 
  O3816    1.0000 0.35560  0.78089  0.56574  Biso   1.000  O 
  Ca1469   1.0000 0.25093  0.78089  0.58208  Biso   1.000  Ca
  P881     1.0000 0.29619  0.78089  0.57890  Biso   1.000  P 
  O3817    1.0000 0.30822  0.78089  0.59411  Biso   1.000  O 
  O3818    1.0000 0.31073  0.78089  0.56502  Biso   1.000  O 
  Ca1470   1.0000 0.34422  0.78089  0.59719  Biso   1.000  Ca
  P882     1.0000 0.45028  0.78089  0.57400  Biso   1.000  P 
  O3819    1.0000 0.42672  0.78089  0.57423  Biso   1.000  O 
  O3820    1.0000 0.45900  0.78089  0.59041  Biso   1.000  O 
  O3821    1.0000 0.25011  0.77438  0.55565  Biso   1.000  O 
  O3822    1.0000 0.25011  0.83687  0.55565  Biso   1.000  O 
  H293     1.0000 0.25011  0.75420  0.55565  Biso   1.000  H 
  H294     1.0000 0.25022  0.81669  0.55561  Biso   1.000  H 
  O3823    1.0000 0.36442  0.86585  0.64248  Biso   1.000  O 
  O3824    1.0000 0.46786  0.86585  0.64083  Biso   1.000  O 
  O3825    1.0000 0.29305  0.86585  0.65473  Biso   1.000  O 
  O3826    1.0000 0.26080  0.80335  0.63147  Biso   1.000  O 
  O3827    1.0000 0.40736  0.80335  0.63313  Biso   1.000  O 
  O3828    1.0000 0.33217  0.80335  0.61922  Biso   1.000  O 
  O3829    1.0000 0.26080  0.75842  0.63147  Biso   1.000  O 
  O3830    1.0000 0.40736  0.75842  0.63313  Biso   1.000  O 
  O3831    1.0000 0.33217  0.75842  0.61922  Biso   1.000  O 
  O3832    1.0000 0.36442  0.82093  0.64248  Biso   1.000  O 
  O3833    1.0000 0.46786  0.82093  0.64083  Biso   1.000  O 
  O3834    1.0000 0.29305  0.82093  0.65473  Biso   1.000  O 
  Ca1471   1.0000 0.29178  0.87445  0.60986  Biso   1.000  Ca
  Ca1472   1.0000 0.45844  0.81196  0.60987  Biso   1.000  Ca
  Ca1473   1.0000 0.45844  0.87482  0.60987  Biso   1.000  Ca
  Ca1474   1.0000 0.29178  0.81231  0.60986  Biso   1.000  Ca
  Ca1475   1.0000 0.34506  0.84338  0.62363  Biso   1.000  Ca
  P883     1.0000 0.37136  0.84338  0.65147  Biso   1.000  P 
  O3835    1.0000 0.48484  0.84338  0.61269  Biso   1.000  O 
  O3836    1.0000 0.39463  0.84338  0.65400  Biso   1.000  O 
  Ca1476   1.0000 0.49929  0.84338  0.63765  Biso   1.000  Ca
  P884     1.0000 0.45404  0.84338  0.64084  Biso   1.000  P 
  O3837    1.0000 0.44200  0.84338  0.62563  Biso   1.000  O 
  O3838    1.0000 0.43949  0.84338  0.65471  Biso   1.000  O 
  Ca1477   1.0000 0.40599  0.84338  0.62255  Biso   1.000  Ca
  P885     1.0000 0.29995  0.84338  0.64573  Biso   1.000  P 
  O3839    1.0000 0.32350  0.84338  0.64551  Biso   1.000  O 
  O3840    1.0000 0.29122  0.84338  0.62933  Biso   1.000  O 
  Ca1478   1.0000 0.28018  0.78089  0.65033  Biso   1.000  Ca
  P886     1.0000 0.25386  0.78089  0.62248  Biso   1.000  P 
  O3841    1.0000 0.39039  0.78089  0.66127  Biso   1.000  O 
  O3842    1.0000 0.48060  0.78089  0.61996  Biso   1.000  O 
  Ca1479   1.0000 0.37593  0.78089  0.63630  Biso   1.000  Ca
  P887     1.0000 0.42119  0.78089  0.63312  Biso   1.000  P 
  O3843    1.0000 0.43322  0.78089  0.64833  Biso   1.000  O 
  O3844    1.0000 0.43573  0.78089  0.61924  Biso   1.000  O 
  Ca1480   1.0000 0.46922  0.78089  0.65141  Biso   1.000  Ca
  P888     1.0000 0.32528  0.78089  0.62822  Biso   1.000  P 
  O3845    1.0000 0.30172  0.78089  0.62845  Biso   1.000  O 
  O3846    1.0000 0.33400  0.78089  0.64462  Biso   1.000  O 
  O3847    1.0000 0.37511  0.77438  0.60987  Biso   1.000  O 
  O3848    1.0000 0.37511  0.83687  0.60987  Biso   1.000  O 
  H295     1.0000 0.37511  0.75420  0.60987  Biso   1.000  H 
  H296     1.0000 0.37522  0.81669  0.60982  Biso   1.000  H 
  O3849    1.0000 0.48942  0.86585  0.69670  Biso   1.000  O 
  O3850    1.0000 0.34286  0.86585  0.69504  Biso   1.000  O 
  O3851    1.0000 0.41805  0.86585  0.70895  Biso   1.000  O 
  O3852    1.0000 0.38580  0.80335  0.68569  Biso   1.000  O 
  O3853    1.0000 0.28236  0.80335  0.68734  Biso   1.000  O 
  O3854    1.0000 0.45717  0.80335  0.67344  Biso   1.000  O 
  O3855    1.0000 0.38580  0.75842  0.68569  Biso   1.000  O 
  O3856    1.0000 0.28236  0.75842  0.68734  Biso   1.000  O 
  O3857    1.0000 0.45717  0.75842  0.67344  Biso   1.000  O 
  O3858    1.0000 0.48942  0.82093  0.69670  Biso   1.000  O 
  O3859    1.0000 0.34286  0.82093  0.69504  Biso   1.000  O 
  O3860    1.0000 0.41805  0.82093  0.70895  Biso   1.000  O 
  Ca1481   1.0000 0.41678  0.87445  0.66408  Biso   1.000  Ca
  Ca1482   1.0000 0.33344  0.81196  0.66409  Biso   1.000  Ca
  Ca1483   1.0000 0.33344  0.87482  0.66409  Biso   1.000  Ca
  Ca1484   1.0000 0.41678  0.81231  0.66408  Biso   1.000  Ca
  Ca1485   1.0000 0.47006  0.84338  0.67784  Biso   1.000  Ca
  P889     1.0000 0.49636  0.84338  0.70569  Biso   1.000  P 
  O3861    1.0000 0.35984  0.84338  0.66691  Biso   1.000  O 
  O3862    1.0000 0.26963  0.84338  0.70822  Biso   1.000  O 
  Ca1486   1.0000 0.37429  0.84338  0.69187  Biso   1.000  Ca
  P890     1.0000 0.32904  0.84338  0.69506  Biso   1.000  P 
  O3863    1.0000 0.31700  0.84338  0.67985  Biso   1.000  O 
  O3864    1.0000 0.31449  0.84338  0.70893  Biso   1.000  O 
  Ca1487   1.0000 0.28099  0.84338  0.67677  Biso   1.000  Ca
  P891     1.0000 0.42495  0.84338  0.69995  Biso   1.000  P 
  O3865    1.0000 0.44850  0.84338  0.69973  Biso   1.000  O 
  O3866    1.0000 0.41622  0.84338  0.68355  Biso   1.000  O 
  Ca1488   1.0000 0.40518  0.78089  0.70455  Biso   1.000  Ca
  P892     1.0000 0.37886  0.78089  0.67670  Biso   1.000  P 
  O3867    1.0000 0.26539  0.78089  0.71548  Biso   1.000  O 
  O3868    1.0000 0.35560  0.78089  0.67418  Biso   1.000  O 
  Ca1489   1.0000 0.25093  0.78089  0.69052  Biso   1.000  Ca
  P893     1.0000 0.29619  0.78089  0.68733  Biso   1.000  P 
  O3869    1.0000 0.30822  0.78089  0.70255  Biso   1.000  O 
  O3870    1.0000 0.31073  0.78089  0.67346  Biso   1.000  O 
  Ca1490   1.0000 0.34422  0.78089  0.70563  Biso   1.000  Ca
  P894     1.0000 0.45028  0.78089  0.68244  Biso   1.000  P 
  O3871    1.0000 0.42672  0.78089  0.68266  Biso   1.000  O 
  O3872    1.0000 0.45900  0.78089  0.69884  Biso   1.000  O 
  O3873    1.0000 0.25011  0.77438  0.66409  Biso   1.000  O 
  O3874    1.0000 0.25011  0.83687  0.66409  Biso   1.000  O 
  H297     1.0000 0.25011  0.75420  0.66409  Biso   1.000  H 
  H298     1.0000 0.25022  0.81669  0.66404  Biso   1.000  H 
  O3875    1.0000 0.36442  0.86585  0.75091  Biso   1.000  O 
  O3876    1.0000 0.46786  0.86585  0.74926  Biso   1.000  O 
  O3877    1.0000 0.29305  0.86585  0.76317  Biso   1.000  O 
  O3878    1.0000 0.26080  0.80335  0.73991  Biso   1.000  O 
  O3879    1.0000 0.40736  0.80335  0.74156  Biso   1.000  O 
  O3880    1.0000 0.33217  0.80335  0.72766  Biso   1.000  O 
  O3881    1.0000 0.26080  0.75842  0.73991  Biso   1.000  O 
  O3882    1.0000 0.40736  0.75842  0.74156  Biso   1.000  O 
  O3883    1.0000 0.33217  0.75842  0.72766  Biso   1.000  O 
  O3884    1.0000 0.36442  0.82093  0.75091  Biso   1.000  O 
  O3885    1.0000 0.46786  0.82093  0.74926  Biso   1.000  O 
  O3886    1.0000 0.29305  0.82093  0.76317  Biso   1.000  O 
  Ca1491   1.0000 0.29178  0.87445  0.71830  Biso   1.000  Ca
  Ca1492   1.0000 0.45844  0.81196  0.71831  Biso   1.000  Ca
  Ca1493   1.0000 0.45844  0.87482  0.71831  Biso   1.000  Ca
  Ca1494   1.0000 0.29178  0.81231  0.71830  Biso   1.000  Ca
  Ca1495   1.0000 0.34506  0.84338  0.73206  Biso   1.000  Ca
  P895     1.0000 0.37136  0.84338  0.75990  Biso   1.000  P 
  O3887    1.0000 0.48484  0.84338  0.72113  Biso   1.000  O 
  O3888    1.0000 0.39463  0.84338  0.76243  Biso   1.000  O 
  Ca1496   1.0000 0.49929  0.84338  0.74609  Biso   1.000  Ca
  P896     1.0000 0.45404  0.84338  0.74928  Biso   1.000  P 
  O3889    1.0000 0.44200  0.84338  0.73407  Biso   1.000  O 
  O3890    1.0000 0.43949  0.84338  0.76315  Biso   1.000  O 
  Ca1497   1.0000 0.40599  0.84338  0.73099  Biso   1.000  Ca
  P897     1.0000 0.29995  0.84338  0.75417  Biso   1.000  P 
  O3891    1.0000 0.32350  0.84338  0.75394  Biso   1.000  O 
  O3892    1.0000 0.29122  0.84338  0.73776  Biso   1.000  O 
  Ca1498   1.0000 0.28018  0.78089  0.75877  Biso   1.000  Ca
  P898     1.0000 0.25386  0.78089  0.73092  Biso   1.000  P 
  O3893    1.0000 0.39039  0.78089  0.76970  Biso   1.000  O 
  O3894    1.0000 0.48060  0.78089  0.72840  Biso   1.000  O 
  Ca1499   1.0000 0.37593  0.78089  0.74474  Biso   1.000  Ca
  P899     1.0000 0.42119  0.78089  0.74155  Biso   1.000  P 
  O3895    1.0000 0.43322  0.78089  0.75677  Biso   1.000  O 
  O3896    1.0000 0.43573  0.78089  0.72767  Biso   1.000  O 
  Ca1500   1.0000 0.46922  0.78089  0.75984  Biso   1.000  Ca
  P900     1.0000 0.32528  0.78089  0.73666  Biso   1.000  P 
  O3897    1.0000 0.30172  0.78089  0.73688  Biso   1.000  O 
  O3898    1.0000 0.33400  0.78089  0.75306  Biso   1.000  O 
  O3899    1.0000 0.37511  0.77438  0.71831  Biso   1.000  O 
  O3900    1.0000 0.37511  0.83687  0.71831  Biso   1.000  O 
  H299     1.0000 0.37511  0.75420  0.71831  Biso   1.000  H 
  H300     1.0000 0.37522  0.81669  0.71826  Biso   1.000  H 
  O3901    1.0000 0.48942  0.99085  0.26295  Biso   1.000  O 
  O3902    1.0000 0.34286  0.99085  0.26130  Biso   1.000  O 
  O3903    1.0000 0.41805  0.99085  0.27520  Biso   1.000  O 
  O3904    1.0000 0.38580  0.92835  0.25195  Biso   1.000  O 
  O3905    1.0000 0.28236  0.92835  0.25360  Biso   1.000  O 
  O3906    1.0000 0.45717  0.92835  0.23970  Biso   1.000  O 
  O3907    1.0000 0.38580  0.88342  0.25195  Biso   1.000  O 
  O3908    1.0000 0.28236  0.88342  0.25360  Biso   1.000  O 
  O3909    1.0000 0.45717  0.88342  0.23970  Biso   1.000  O 
  O3910    1.0000 0.48942  0.94593  0.26295  Biso   1.000  O 
  O3911    1.0000 0.34286  0.94593  0.26130  Biso   1.000  O 
  O3912    1.0000 0.41805  0.94593  0.27520  Biso   1.000  O 
  Ca1501   1.0000 0.41678  0.99945  0.23034  Biso   1.000  Ca
  Ca1502   1.0000 0.33344  0.93696  0.23035  Biso   1.000  Ca
  Ca1503   1.0000 0.33344  0.99982  0.23035  Biso   1.000  Ca
  Ca1504   1.0000 0.41678  0.93731  0.23034  Biso   1.000  Ca
  Ca1505   1.0000 0.47006  0.96838  0.24410  Biso   1.000  Ca
  P901     1.0000 0.49636  0.96838  0.27194  Biso   1.000  P 
  O3913    1.0000 0.35984  0.96838  0.23317  Biso   1.000  O 
  O3914    1.0000 0.26963  0.96838  0.27447  Biso   1.000  O 
  Ca1506   1.0000 0.37429  0.96838  0.25813  Biso   1.000  Ca
  P902     1.0000 0.32904  0.96838  0.26132  Biso   1.000  P 
  O3915    1.0000 0.31700  0.96838  0.24611  Biso   1.000  O 
  O3916    1.0000 0.31449  0.96838  0.27519  Biso   1.000  O 
  Ca1507   1.0000 0.28099  0.96838  0.24303  Biso   1.000  Ca
  P903     1.0000 0.42495  0.96838  0.26620  Biso   1.000  P 
  O3917    1.0000 0.44850  0.96838  0.26598  Biso   1.000  O 
  O3918    1.0000 0.41622  0.96838  0.24980  Biso   1.000  O 
  Ca1508   1.0000 0.40518  0.90589  0.27081  Biso   1.000  Ca
  P904     1.0000 0.37886  0.90589  0.24296  Biso   1.000  P 
  O3919    1.0000 0.26539  0.90589  0.28174  Biso   1.000  O 
  O3920    1.0000 0.35560  0.90589  0.24043  Biso   1.000  O 
  Ca1509   1.0000 0.25093  0.90589  0.25677  Biso   1.000  Ca
  P905     1.0000 0.29619  0.90589  0.25359  Biso   1.000  P 
  O3921    1.0000 0.30822  0.90589  0.26880  Biso   1.000  O 
  O3922    1.0000 0.31073  0.90589  0.23971  Biso   1.000  O 
  Ca1510   1.0000 0.34422  0.90589  0.27188  Biso   1.000  Ca
  P906     1.0000 0.45028  0.90589  0.24870  Biso   1.000  P 
  O3923    1.0000 0.42672  0.90589  0.24892  Biso   1.000  O 
  O3924    1.0000 0.45900  0.90589  0.26510  Biso   1.000  O 
  O3925    1.0000 0.25011  0.89938  0.23034  Biso   1.000  O 
  O3926    1.0000 0.25011  0.96187  0.23034  Biso   1.000  O 
  H301     1.0000 0.25011  0.87920  0.23034  Biso   1.000  H 
  H302     1.0000 0.25022  0.94169  0.23030  Biso   1.000  H 
  O3927    1.0000 0.36442  0.99085  0.31717  Biso   1.000  O 
  O3928    1.0000 0.46786  0.99085  0.31552  Biso   1.000  O 
  O3929    1.0000 0.29305  0.99085  0.32942  Biso   1.000  O 
  O3930    1.0000 0.26080  0.92835  0.30617  Biso   1.000  O 
  O3931    1.0000 0.40736  0.92835  0.30782  Biso   1.000  O 
  O3932    1.0000 0.33217  0.92835  0.29391  Biso   1.000  O 
  O3933    1.0000 0.26080  0.88342  0.30617  Biso   1.000  O 
  O3934    1.0000 0.40736  0.88342  0.30782  Biso   1.000  O 
  O3935    1.0000 0.33217  0.88342  0.29391  Biso   1.000  O 
  O3936    1.0000 0.36442  0.94593  0.31717  Biso   1.000  O 
  O3937    1.0000 0.46786  0.94593  0.31552  Biso   1.000  O 
  O3938    1.0000 0.29305  0.94593  0.32942  Biso   1.000  O 
  Ca1511   1.0000 0.29178  0.99945  0.28456  Biso   1.000  Ca
  Ca1512   1.0000 0.45844  0.93696  0.28456  Biso   1.000  Ca
  Ca1513   1.0000 0.45844  0.99982  0.28456  Biso   1.000  Ca
  Ca1514   1.0000 0.29178  0.93731  0.28456  Biso   1.000  Ca
  Ca1515   1.0000 0.34506  0.96838  0.29832  Biso   1.000  Ca
  P907     1.0000 0.37136  0.96838  0.32616  Biso   1.000  P 
  O3939    1.0000 0.48484  0.96838  0.28738  Biso   1.000  O 
  O3940    1.0000 0.39463  0.96838  0.32869  Biso   1.000  O 
  Ca1516   1.0000 0.49929  0.96838  0.31234  Biso   1.000  Ca
  P908     1.0000 0.45404  0.96838  0.31554  Biso   1.000  P 
  O3941    1.0000 0.44200  0.96838  0.30033  Biso   1.000  O 
  O3942    1.0000 0.43949  0.96838  0.32941  Biso   1.000  O 
  Ca1517   1.0000 0.40599  0.96838  0.29725  Biso   1.000  Ca
  P909     1.0000 0.29995  0.96838  0.32042  Biso   1.000  P 
  O3943    1.0000 0.32350  0.96838  0.32020  Biso   1.000  O 
  O3944    1.0000 0.29122  0.96838  0.30402  Biso   1.000  O 
  Ca1518   1.0000 0.28018  0.90589  0.32502  Biso   1.000  Ca
  P910     1.0000 0.25386  0.90589  0.29718  Biso   1.000  P 
  O3945    1.0000 0.39039  0.90589  0.33596  Biso   1.000  O 
  O3946    1.0000 0.48060  0.90589  0.29465  Biso   1.000  O 
  Ca1519   1.0000 0.37593  0.90589  0.31099  Biso   1.000  Ca
  P911     1.0000 0.42119  0.90589  0.30781  Biso   1.000  P 
  O3947    1.0000 0.43322  0.90589  0.32302  Biso   1.000  O 
  O3948    1.0000 0.43573  0.90589  0.29393  Biso   1.000  O 
  Ca1520   1.0000 0.46922  0.90589  0.32610  Biso   1.000  Ca
  P912     1.0000 0.32528  0.90589  0.30291  Biso   1.000  P 
  O3949    1.0000 0.30172  0.90589  0.30314  Biso   1.000  O 
  O3950    1.0000 0.33400  0.90589  0.31932  Biso   1.000  O 
  O3951    1.0000 0.37511  0.89938  0.28456  Biso   1.000  O 
  O3952    1.0000 0.37511  0.96187  0.28456  Biso   1.000  O 
  H303     1.0000 0.37511  0.87920  0.28456  Biso   1.000  H 
  H304     1.0000 0.37522  0.94169  0.28452  Biso   1.000  H 
  O3953    1.0000 0.48942  0.99085  0.37139  Biso   1.000  O 
  O3954    1.0000 0.34286  0.99085  0.36974  Biso   1.000  O 
  O3955    1.0000 0.41805  0.99085  0.38364  Biso   1.000  O 
  O3956    1.0000 0.38580  0.92835  0.36038  Biso   1.000  O 
  O3957    1.0000 0.28236  0.92835  0.36204  Biso   1.000  O 
  O3958    1.0000 0.45717  0.92835  0.34813  Biso   1.000  O 
  O3959    1.0000 0.38580  0.88342  0.36038  Biso   1.000  O 
  O3960    1.0000 0.28236  0.88342  0.36204  Biso   1.000  O 
  O3961    1.0000 0.45717  0.88342  0.34813  Biso   1.000  O 
  O3962    1.0000 0.48942  0.94593  0.37139  Biso   1.000  O 
  O3963    1.0000 0.34286  0.94593  0.36974  Biso   1.000  O 
  O3964    1.0000 0.41805  0.94593  0.38364  Biso   1.000  O 
  Ca1521   1.0000 0.41678  0.99945  0.33877  Biso   1.000  Ca
  Ca1522   1.0000 0.33344  0.93696  0.33878  Biso   1.000  Ca
  Ca1523   1.0000 0.33344  0.99982  0.33878  Biso   1.000  Ca
  Ca1524   1.0000 0.41678  0.93731  0.33877  Biso   1.000  Ca
  Ca1525   1.0000 0.47006  0.96838  0.35254  Biso   1.000  Ca
  P913     1.0000 0.49636  0.96838  0.38038  Biso   1.000  P 
  O3965    1.0000 0.35984  0.96838  0.34160  Biso   1.000  O 
  O3966    1.0000 0.26963  0.96838  0.38291  Biso   1.000  O 
  Ca1526   1.0000 0.37429  0.96838  0.36656  Biso   1.000  Ca
  P914     1.0000 0.32904  0.96838  0.36975  Biso   1.000  P 
  O3967    1.0000 0.31700  0.96838  0.35454  Biso   1.000  O 
  O3968    1.0000 0.31449  0.96838  0.38362  Biso   1.000  O 
  Ca1527   1.0000 0.28099  0.96838  0.35146  Biso   1.000  Ca
  P915     1.0000 0.42495  0.96838  0.37464  Biso   1.000  P 
  O3969    1.0000 0.44850  0.96838  0.37442  Biso   1.000  O 
  O3970    1.0000 0.41622  0.96838  0.35824  Biso   1.000  O 
  Ca1528   1.0000 0.40518  0.90589  0.37924  Biso   1.000  Ca
  P916     1.0000 0.37886  0.90589  0.35140  Biso   1.000  P 
  O3971    1.0000 0.26539  0.90589  0.39018  Biso   1.000  O 
  O3972    1.0000 0.35560  0.90589  0.34887  Biso   1.000  O 
  Ca1529   1.0000 0.25093  0.90589  0.36521  Biso   1.000  Ca
  P917     1.0000 0.29619  0.90589  0.36203  Biso   1.000  P 
  O3973    1.0000 0.30822  0.90589  0.37724  Biso   1.000  O 
  O3974    1.0000 0.31073  0.90589  0.34815  Biso   1.000  O 
  Ca1530   1.0000 0.34422  0.90589  0.38032  Biso   1.000  Ca
  P918     1.0000 0.45028  0.90589  0.35713  Biso   1.000  P 
  O3975    1.0000 0.42672  0.90589  0.35736  Biso   1.000  O 
  O3976    1.0000 0.45900  0.90589  0.37353  Biso   1.000  O 
  O3977    1.0000 0.25011  0.89938  0.33878  Biso   1.000  O 
  O3978    1.0000 0.25011  0.96187  0.33878  Biso   1.000  O 
  H305     1.0000 0.25011  0.87920  0.33878  Biso   1.000  H 
  H306     1.0000 0.25022  0.94169  0.33873  Biso   1.000  H 
  O3979    1.0000 0.36442  0.99085  0.42561  Biso   1.000  O 
  O3980    1.0000 0.46786  0.99085  0.42395  Biso   1.000  O 
  O3981    1.0000 0.29305  0.99085  0.43786  Biso   1.000  O 
  O3982    1.0000 0.26080  0.92835  0.41460  Biso   1.000  O 
  O3983    1.0000 0.40736  0.92835  0.41625  Biso   1.000  O 
  O3984    1.0000 0.33217  0.92835  0.40235  Biso   1.000  O 
  O3985    1.0000 0.26080  0.88342  0.41460  Biso   1.000  O 
  O3986    1.0000 0.40736  0.88342  0.41625  Biso   1.000  O 
  O3987    1.0000 0.33217  0.88342  0.40235  Biso   1.000  O 
  O3988    1.0000 0.36442  0.94593  0.42561  Biso   1.000  O 
  O3989    1.0000 0.46786  0.94593  0.42395  Biso   1.000  O 
  O3990    1.0000 0.29305  0.94593  0.43786  Biso   1.000  O 
  Ca1531   1.0000 0.29178  0.99945  0.39299  Biso   1.000  Ca
  Ca1532   1.0000 0.45844  0.93696  0.39300  Biso   1.000  Ca
  Ca1533   1.0000 0.45844  0.99982  0.39300  Biso   1.000  Ca
  Ca1534   1.0000 0.29178  0.93731  0.39299  Biso   1.000  Ca
  Ca1535   1.0000 0.34506  0.96838  0.40675  Biso   1.000  Ca
  P919     1.0000 0.37136  0.96838  0.43460  Biso   1.000  P 
  O3991    1.0000 0.48484  0.96838  0.39582  Biso   1.000  O 
  O3992    1.0000 0.39463  0.96838  0.43713  Biso   1.000  O 
  Ca1536   1.0000 0.49929  0.96838  0.42078  Biso   1.000  Ca
  P920     1.0000 0.45404  0.96838  0.42397  Biso   1.000  P 
  O3993    1.0000 0.44200  0.96838  0.40876  Biso   1.000  O 
  O3994    1.0000 0.43949  0.96838  0.43784  Biso   1.000  O 
  Ca1537   1.0000 0.40599  0.96838  0.40568  Biso   1.000  Ca
  P921     1.0000 0.29995  0.96838  0.42886  Biso   1.000  P 
  O3995    1.0000 0.32350  0.96838  0.42864  Biso   1.000  O 
  O3996    1.0000 0.29122  0.96838  0.41246  Biso   1.000  O 
  Ca1538   1.0000 0.28018  0.90589  0.43346  Biso   1.000  Ca
  P922     1.0000 0.25386  0.90589  0.40561  Biso   1.000  P 
  O3997    1.0000 0.39039  0.90589  0.44439  Biso   1.000  O 
  O3998    1.0000 0.48060  0.90589  0.40309  Biso   1.000  O 
  Ca1539   1.0000 0.37593  0.90589  0.41943  Biso   1.000  Ca
  P923     1.0000 0.42119  0.90589  0.41624  Biso   1.000  P 
  O3999    1.0000 0.43322  0.90589  0.43146  Biso   1.000  O 
  O4000    1.0000 0.43573  0.90589  0.40237  Biso   1.000  O 
  Ca1540   1.0000 0.46922  0.90589  0.43454  Biso   1.000  Ca
  P924     1.0000 0.32528  0.90589  0.41135  Biso   1.000  P 
  O4001    1.0000 0.30172  0.90589  0.41157  Biso   1.000  O 
  O4002    1.0000 0.33400  0.90589  0.42775  Biso   1.000  O 
  O4003    1.0000 0.37511  0.89938  0.39300  Biso   1.000  O 
  O4004    1.0000 0.37511  0.96187  0.39300  Biso   1.000  O 
  H307     1.0000 0.37511  0.87920  0.39300  Biso   1.000  H 
  H308     1.0000 0.37522  0.94169  0.39295  Biso   1.000  H 
  O4005    1.0000 0.48942  0.99085  0.47982  Biso   1.000  O 
  O4006    1.0000 0.34286  0.99085  0.47817  Biso   1.000  O 
  O4007    1.0000 0.41805  0.99085  0.49208  Biso   1.000  O 
  O4008    1.0000 0.38580  0.92835  0.46882  Biso   1.000  O 
  O4009    1.0000 0.28236  0.92835  0.47047  Biso   1.000  O 
  O4010    1.0000 0.45717  0.92835  0.45657  Biso   1.000  O 
  O4011    1.0000 0.38580  0.88342  0.46882  Biso   1.000  O 
  O4012    1.0000 0.28236  0.88342  0.47047  Biso   1.000  O 
  O4013    1.0000 0.45717  0.88342  0.45657  Biso   1.000  O 
  O4014    1.0000 0.48942  0.94593  0.47982  Biso   1.000  O 
  O4015    1.0000 0.34286  0.94593  0.47817  Biso   1.000  O 
  O4016    1.0000 0.41805  0.94593  0.49208  Biso   1.000  O 
  Ca1541   1.0000 0.41678  0.99945  0.44721  Biso   1.000  Ca
  Ca1542   1.0000 0.33344  0.93696  0.44722  Biso   1.000  Ca
  Ca1543   1.0000 0.33344  0.99982  0.44722  Biso   1.000  Ca
  Ca1544   1.0000 0.41678  0.93731  0.44721  Biso   1.000  Ca
  Ca1545   1.0000 0.47006  0.96838  0.46097  Biso   1.000  Ca
  P925     1.0000 0.49636  0.96838  0.48881  Biso   1.000  P 
  O4017    1.0000 0.35984  0.96838  0.45004  Biso   1.000  O 
  O4018    1.0000 0.26963  0.96838  0.49134  Biso   1.000  O 
  Ca1546   1.0000 0.37429  0.96838  0.47500  Biso   1.000  Ca
  P926     1.0000 0.32904  0.96838  0.47819  Biso   1.000  P 
  O4019    1.0000 0.31700  0.96838  0.46298  Biso   1.000  O 
  O4020    1.0000 0.31449  0.96838  0.49206  Biso   1.000  O 
  Ca1547   1.0000 0.28099  0.96838  0.45990  Biso   1.000  Ca
  P927     1.0000 0.42495  0.96838  0.48308  Biso   1.000  P 
  O4021    1.0000 0.44850  0.96838  0.48285  Biso   1.000  O 
  O4022    1.0000 0.41622  0.96838  0.46667  Biso   1.000  O 
  Ca1548   1.0000 0.40518  0.90589  0.48768  Biso   1.000  Ca
  P928     1.0000 0.37886  0.90589  0.45983  Biso   1.000  P 
  O4023    1.0000 0.26539  0.90589  0.49861  Biso   1.000  O 
  O4024    1.0000 0.35560  0.90589  0.45731  Biso   1.000  O 
  Ca1549   1.0000 0.25093  0.90589  0.47365  Biso   1.000  Ca
  P929     1.0000 0.29619  0.90589  0.47046  Biso   1.000  P 
  O4025    1.0000 0.30822  0.90589  0.48568  Biso   1.000  O 
  O4026    1.0000 0.31073  0.90589  0.45658  Biso   1.000  O 
  Ca1550   1.0000 0.34422  0.90589  0.48875  Biso   1.000  Ca
  P930     1.0000 0.45028  0.90589  0.46557  Biso   1.000  P 
  O4027    1.0000 0.42672  0.90589  0.46579  Biso   1.000  O 
  O4028    1.0000 0.45900  0.90589  0.48197  Biso   1.000  O 
  O4029    1.0000 0.25011  0.89938  0.44722  Biso   1.000  O 
  O4030    1.0000 0.25011  0.96187  0.44722  Biso   1.000  O 
  H309     1.0000 0.25011  0.87920  0.44722  Biso   1.000  H 
  H310     1.0000 0.25022  0.94169  0.44717  Biso   1.000  H 
  O4031    1.0000 0.36442  0.99085  0.53404  Biso   1.000  O 
  O4032    1.0000 0.46786  0.99085  0.53239  Biso   1.000  O 
  O4033    1.0000 0.29305  0.99085  0.54629  Biso   1.000  O 
  O4034    1.0000 0.26080  0.92835  0.52304  Biso   1.000  O 
  O4035    1.0000 0.40736  0.92835  0.52469  Biso   1.000  O 
  O4036    1.0000 0.33217  0.92835  0.51079  Biso   1.000  O 
  O4037    1.0000 0.26080  0.88342  0.52304  Biso   1.000  O 
  O4038    1.0000 0.40736  0.88342  0.52469  Biso   1.000  O 
  O4039    1.0000 0.33217  0.88342  0.51079  Biso   1.000  O 
  O4040    1.0000 0.36442  0.94593  0.53404  Biso   1.000  O 
  O4041    1.0000 0.46786  0.94593  0.53239  Biso   1.000  O 
  O4042    1.0000 0.29305  0.94593  0.54629  Biso   1.000  O 
  Ca1551   1.0000 0.29178  0.99945  0.50143  Biso   1.000  Ca
  Ca1552   1.0000 0.45844  0.93696  0.50144  Biso   1.000  Ca
  Ca1553   1.0000 0.45844  0.99982  0.50144  Biso   1.000  Ca
  Ca1554   1.0000 0.29178  0.93731  0.50143  Biso   1.000  Ca
  Ca1555   1.0000 0.34506  0.96838  0.51519  Biso   1.000  Ca
  P931     1.0000 0.37136  0.96838  0.54303  Biso   1.000  P 
  O4043    1.0000 0.48484  0.96838  0.50426  Biso   1.000  O 
  O4044    1.0000 0.39463  0.96838  0.54556  Biso   1.000  O 
  Ca1556   1.0000 0.49929  0.96838  0.52922  Biso   1.000  Ca
  P932     1.0000 0.45404  0.96838  0.53241  Biso   1.000  P 
  O4045    1.0000 0.44200  0.96838  0.51720  Biso   1.000  O 
  O4046    1.0000 0.43949  0.96838  0.54628  Biso   1.000  O 
  Ca1557   1.0000 0.40599  0.96838  0.51412  Biso   1.000  Ca
  P933     1.0000 0.29995  0.96838  0.53729  Biso   1.000  P 
  O4047    1.0000 0.32350  0.96838  0.53707  Biso   1.000  O 
  O4048    1.0000 0.29122  0.96838  0.52089  Biso   1.000  O 
  Ca1558   1.0000 0.28018  0.90589  0.54190  Biso   1.000  Ca
  P934     1.0000 0.25386  0.90589  0.51405  Biso   1.000  P 
  O4049    1.0000 0.39039  0.90589  0.55283  Biso   1.000  O 
  O4050    1.0000 0.48060  0.90589  0.51152  Biso   1.000  O 
  Ca1559   1.0000 0.37593  0.90589  0.52786  Biso   1.000  Ca
  P935     1.0000 0.42119  0.90589  0.52468  Biso   1.000  P 
  O4051    1.0000 0.43322  0.90589  0.53989  Biso   1.000  O 
  O4052    1.0000 0.43573  0.90589  0.51080  Biso   1.000  O 
  Ca1560   1.0000 0.46922  0.90589  0.54297  Biso   1.000  Ca
  P936     1.0000 0.32528  0.90589  0.51979  Biso   1.000  P 
  O4053    1.0000 0.30172  0.90589  0.52001  Biso   1.000  O 
  O4054    1.0000 0.33400  0.90589  0.53619  Biso   1.000  O 
  O4055    1.0000 0.37511  0.89938  0.50143  Biso   1.000  O 
  O4056    1.0000 0.37511  0.96187  0.50143  Biso   1.000  O 
  H311     1.0000 0.37511  0.87920  0.50143  Biso   1.000  H 
  H312     1.0000 0.37522  0.94169  0.50139  Biso   1.000  H 
  O4057    1.0000 0.48942  0.99085  0.58826  Biso   1.000  O 
  O4058    1.0000 0.34286  0.99085  0.58661  Biso   1.000  O 
  O4059    1.0000 0.41805  0.99085  0.60051  Biso   1.000  O 
  O4060    1.0000 0.38580  0.92835  0.57726  Biso   1.000  O 
  O4061    1.0000 0.28236  0.92835  0.57891  Biso   1.000  O 
  O4062    1.0000 0.45717  0.92835  0.56500  Biso   1.000  O 
  O4063    1.0000 0.38580  0.88342  0.57726  Biso   1.000  O 
  O4064    1.0000 0.28236  0.88342  0.57891  Biso   1.000  O 
  O4065    1.0000 0.45717  0.88342  0.56500  Biso   1.000  O 
  O4066    1.0000 0.48942  0.94593  0.58826  Biso   1.000  O 
  O4067    1.0000 0.34286  0.94593  0.58661  Biso   1.000  O 
  O4068    1.0000 0.41805  0.94593  0.60051  Biso   1.000  O 
  Ca1561   1.0000 0.41678  0.99945  0.55565  Biso   1.000  Ca
  Ca1562   1.0000 0.33344  0.93696  0.55565  Biso   1.000  Ca
  Ca1563   1.0000 0.33344  0.99982  0.55565  Biso   1.000  Ca
  Ca1564   1.0000 0.41678  0.93731  0.55565  Biso   1.000  Ca
  Ca1565   1.0000 0.47006  0.96838  0.56941  Biso   1.000  Ca
  P937     1.0000 0.49636  0.96838  0.59725  Biso   1.000  P 
  O4069    1.0000 0.35984  0.96838  0.55847  Biso   1.000  O 
  O4070    1.0000 0.26963  0.96838  0.59978  Biso   1.000  O 
  Ca1566   1.0000 0.37429  0.96838  0.58343  Biso   1.000  Ca
  P938     1.0000 0.32904  0.96838  0.58662  Biso   1.000  P 
  O4071    1.0000 0.31700  0.96838  0.57141  Biso   1.000  O 
  O4072    1.0000 0.31449  0.96838  0.60050  Biso   1.000  O 
  Ca1567   1.0000 0.28099  0.96838  0.56834  Biso   1.000  Ca
  P939     1.0000 0.42495  0.96838  0.59151  Biso   1.000  P 
  O4073    1.0000 0.44850  0.96838  0.59129  Biso   1.000  O 
  O4074    1.0000 0.41622  0.96838  0.57511  Biso   1.000  O 
  Ca1568   1.0000 0.40518  0.90589  0.59611  Biso   1.000  Ca
  P940     1.0000 0.37886  0.90589  0.56827  Biso   1.000  P 
  O4075    1.0000 0.26539  0.90589  0.60705  Biso   1.000  O 
  O4076    1.0000 0.35560  0.90589  0.56574  Biso   1.000  O 
  Ca1569   1.0000 0.25093  0.90589  0.58208  Biso   1.000  Ca
  P941     1.0000 0.29619  0.90589  0.57890  Biso   1.000  P 
  O4077    1.0000 0.30822  0.90589  0.59411  Biso   1.000  O 
  O4078    1.0000 0.31073  0.90589  0.56502  Biso   1.000  O 
  Ca1570   1.0000 0.34422  0.90589  0.59719  Biso   1.000  Ca
  P942     1.0000 0.45028  0.90589  0.57400  Biso   1.000  P 
  O4079    1.0000 0.42672  0.90589  0.57423  Biso   1.000  O 
  O4080    1.0000 0.45900  0.90589  0.59041  Biso   1.000  O 
  O4081    1.0000 0.25011  0.89938  0.55565  Biso   1.000  O 
  O4082    1.0000 0.25011  0.96187  0.55565  Biso   1.000  O 
  H313     1.0000 0.25011  0.87920  0.55565  Biso   1.000  H 
  H314     1.0000 0.25022  0.94169  0.55561  Biso   1.000  H 
  O4083    1.0000 0.36442  0.99085  0.64248  Biso   1.000  O 
  O4084    1.0000 0.46786  0.99085  0.64083  Biso   1.000  O 
  O4085    1.0000 0.29305  0.99085  0.65473  Biso   1.000  O 
  O4086    1.0000 0.26080  0.92835  0.63147  Biso   1.000  O 
  O4087    1.0000 0.40736  0.92835  0.63313  Biso   1.000  O 
  O4088    1.0000 0.33217  0.92835  0.61922  Biso   1.000  O 
  O4089    1.0000 0.26080  0.88342  0.63147  Biso   1.000  O 
  O4090    1.0000 0.40736  0.88342  0.63313  Biso   1.000  O 
  O4091    1.0000 0.33217  0.88342  0.61922  Biso   1.000  O 
  O4092    1.0000 0.36442  0.94593  0.64248  Biso   1.000  O 
  O4093    1.0000 0.46786  0.94593  0.64083  Biso   1.000  O 
  O4094    1.0000 0.29305  0.94593  0.65473  Biso   1.000  O 
  Ca1571   1.0000 0.29178  0.99945  0.60986  Biso   1.000  Ca
  Ca1572   1.0000 0.45844  0.93696  0.60987  Biso   1.000  Ca
  Ca1573   1.0000 0.45844  0.99982  0.60987  Biso   1.000  Ca
  Ca1574   1.0000 0.29178  0.93731  0.60986  Biso   1.000  Ca
  Ca1575   1.0000 0.34506  0.96838  0.62363  Biso   1.000  Ca
  P943     1.0000 0.37136  0.96838  0.65147  Biso   1.000  P 
  O4095    1.0000 0.48484  0.96838  0.61269  Biso   1.000  O 
  O4096    1.0000 0.39463  0.96838  0.65400  Biso   1.000  O 
  Ca1576   1.0000 0.49929  0.96838  0.63765  Biso   1.000  Ca
  P944     1.0000 0.45404  0.96838  0.64084  Biso   1.000  P 
  O4097    1.0000 0.44200  0.96838  0.62563  Biso   1.000  O 
  O4098    1.0000 0.43949  0.96838  0.65471  Biso   1.000  O 
  Ca1577   1.0000 0.40599  0.96838  0.62255  Biso   1.000  Ca
  P945     1.0000 0.29995  0.96838  0.64573  Biso   1.000  P 
  O4099    1.0000 0.32350  0.96838  0.64551  Biso   1.000  O 
  O4100    1.0000 0.29122  0.96838  0.62933  Biso   1.000  O 
  Ca1578   1.0000 0.28018  0.90589  0.65033  Biso   1.000  Ca
  P946     1.0000 0.25386  0.90589  0.62248  Biso   1.000  P 
  O4101    1.0000 0.39039  0.90589  0.66127  Biso   1.000  O 
  O4102    1.0000 0.48060  0.90589  0.61996  Biso   1.000  O 
  Ca1579   1.0000 0.37593  0.90589  0.63630  Biso   1.000  Ca
  P947     1.0000 0.42119  0.90589  0.63312  Biso   1.000  P 
  O4103    1.0000 0.43322  0.90589  0.64833  Biso   1.000  O 
  O4104    1.0000 0.43573  0.90589  0.61924  Biso   1.000  O 
  Ca1580   1.0000 0.46922  0.90589  0.65141  Biso   1.000  Ca
  P948     1.0000 0.32528  0.90589  0.62822  Biso   1.000  P 
  O4105    1.0000 0.30172  0.90589  0.62845  Biso   1.000  O 
  O4106    1.0000 0.33400  0.90589  0.64462  Biso   1.000  O 
  O4107    1.0000 0.37511  0.89938  0.60987  Biso   1.000  O 
  O4108    1.0000 0.37511  0.96187  0.60987  Biso   1.000  O 
  H315     1.0000 0.37511  0.87920  0.60987  Biso   1.000  H 
  H316     1.0000 0.37522  0.94169  0.60982  Biso   1.000  H 
  O4109    1.0000 0.48942  0.99085  0.69670  Biso   1.000  O 
  O4110    1.0000 0.34286  0.99085  0.69504  Biso   1.000  O 
  O4111    1.0000 0.41805  0.99085  0.70895  Biso   1.000  O 
  O4112    1.0000 0.38580  0.92835  0.68569  Biso   1.000  O 
  O4113    1.0000 0.28236  0.92835  0.68734  Biso   1.000  O 
  O4114    1.0000 0.45717  0.92835  0.67344  Biso   1.000  O 
  O4115    1.0000 0.38580  0.88342  0.68569  Biso   1.000  O 
  O4116    1.0000 0.28236  0.88342  0.68734  Biso   1.000  O 
  O4117    1.0000 0.45717  0.88342  0.67344  Biso   1.000  O 
  O4118    1.0000 0.48942  0.94593  0.69670  Biso   1.000  O 
  O4119    1.0000 0.34286  0.94593  0.69504  Biso   1.000  O 
  O4120    1.0000 0.41805  0.94593  0.70895  Biso   1.000  O 
  Ca1581   1.0000 0.41678  0.99945  0.66408  Biso   1.000  Ca
  Ca1582   1.0000 0.33344  0.93696  0.66409  Biso   1.000  Ca
  Ca1583   1.0000 0.33344  0.99982  0.66409  Biso   1.000  Ca
  Ca1584   1.0000 0.41678  0.93731  0.66408  Biso   1.000  Ca
  Ca1585   1.0000 0.47006  0.96838  0.67784  Biso   1.000  Ca
  P949     1.0000 0.49636  0.96838  0.70569  Biso   1.000  P 
  O4121    1.0000 0.35984  0.96838  0.66691  Biso   1.000  O 
  O4122    1.0000 0.26963  0.96838  0.70822  Biso   1.000  O 
  Ca1586   1.0000 0.37429  0.96838  0.69187  Biso   1.000  Ca
  P950     1.0000 0.32904  0.96838  0.69506  Biso   1.000  P 
  O4123    1.0000 0.31700  0.96838  0.67985  Biso   1.000  O 
  O4124    1.0000 0.31449  0.96838  0.70893  Biso   1.000  O 
  Ca1587   1.0000 0.28099  0.96838  0.67677  Biso   1.000  Ca
  P951     1.0000 0.42495  0.96838  0.69995  Biso   1.000  P 
  O4125    1.0000 0.44850  0.96838  0.69973  Biso   1.000  O 
  O4126    1.0000 0.41622  0.96838  0.68355  Biso   1.000  O 
  Ca1588   1.0000 0.40518  0.90589  0.70455  Biso   1.000  Ca
  P952     1.0000 0.37886  0.90589  0.67670  Biso   1.000  P 
  O4127    1.0000 0.26539  0.90589  0.71548  Biso   1.000  O 
  O4128    1.0000 0.35560  0.90589  0.67418  Biso   1.000  O 
  Ca1589   1.0000 0.25093  0.90589  0.69052  Biso   1.000  Ca
  P953     1.0000 0.29619  0.90589  0.68733  Biso   1.000  P 
  O4129    1.0000 0.30822  0.90589  0.70255  Biso   1.000  O 
  O4130    1.0000 0.31073  0.90589  0.67346  Biso   1.000  O 
  Ca1590   1.0000 0.34422  0.90589  0.70563  Biso   1.000  Ca
  P954     1.0000 0.45028  0.90589  0.68244  Biso   1.000  P 
  O4131    1.0000 0.42672  0.90589  0.68266  Biso   1.000  O 
  O4132    1.0000 0.45900  0.90589  0.69884  Biso   1.000  O 
  O4133    1.0000 0.25011  0.89938  0.66409  Biso   1.000  O 
  O4134    1.0000 0.25011  0.96187  0.66409  Biso   1.000  O 
  H317     1.0000 0.25011  0.87920  0.66409  Biso   1.000  H 
  H318     1.0000 0.25022  0.94169  0.66404  Biso   1.000  H 
  O4135    1.0000 0.36442  0.99085  0.75091  Biso   1.000  O 
  O4136    1.0000 0.46786  0.99085  0.74926  Biso   1.000  O 
  O4137    1.0000 0.29305  0.99085  0.76317  Biso   1.000  O 
  O4138    1.0000 0.26080  0.92835  0.73991  Biso   1.000  O 
  O4139    1.0000 0.40736  0.92835  0.74156  Biso   1.000  O 
  O4140    1.0000 0.33217  0.92835  0.72766  Biso   1.000  O 
  O4141    1.0000 0.26080  0.88342  0.73991  Biso   1.000  O 
  O4142    1.0000 0.40736  0.88342  0.74156  Biso   1.000  O 
  O4143    1.0000 0.33217  0.88342  0.72766  Biso   1.000  O 
  O4144    1.0000 0.36442  0.94593  0.75091  Biso   1.000  O 
  O4145    1.0000 0.46786  0.94593  0.74926  Biso   1.000  O 
  O4146    1.0000 0.29305  0.94593  0.76317  Biso   1.000  O 
  Ca1591   1.0000 0.29178  0.99945  0.71830  Biso   1.000  Ca
  Ca1592   1.0000 0.45844  0.93696  0.71831  Biso   1.000  Ca
  Ca1593   1.0000 0.45844  0.99982  0.71831  Biso   1.000  Ca
  Ca1594   1.0000 0.29178  0.93731  0.71830  Biso   1.000  Ca
  Ca1595   1.0000 0.34506  0.96838  0.73206  Biso   1.000  Ca
  P955     1.0000 0.37136  0.96838  0.75990  Biso   1.000  P 
  O4147    1.0000 0.48484  0.96838  0.72113  Biso   1.000  O 
  O4148    1.0000 0.39463  0.96838  0.76243  Biso   1.000  O 
  Ca1596   1.0000 0.49929  0.96838  0.74609  Biso   1.000  Ca
  P956     1.0000 0.45404  0.96838  0.74928  Biso   1.000  P 
  O4149    1.0000 0.44200  0.96838  0.73407  Biso   1.000  O 
  O4150    1.0000 0.43949  0.96838  0.76315  Biso   1.000  O 
  Ca1597   1.0000 0.40599  0.96838  0.73099  Biso   1.000  Ca
  P957     1.0000 0.29995  0.96838  0.75417  Biso   1.000  P 
  O4151    1.0000 0.32350  0.96838  0.75394  Biso   1.000  O 
  O4152    1.0000 0.29122  0.96838  0.73776  Biso   1.000  O 
  Ca1598   1.0000 0.28018  0.90589  0.75877  Biso   1.000  Ca
  P958     1.0000 0.25386  0.90589  0.73092  Biso   1.000  P 
  O4153    1.0000 0.39039  0.90589  0.76970  Biso   1.000  O 
  O4154    1.0000 0.48060  0.90589  0.72840  Biso   1.000  O 
  Ca1599   1.0000 0.37593  0.90589  0.74474  Biso   1.000  Ca
  P959     1.0000 0.42119  0.90589  0.74155  Biso   1.000  P 
  O4155    1.0000 0.43322  0.90589  0.75677  Biso   1.000  O 
  O4156    1.0000 0.43573  0.90589  0.72767  Biso   1.000  O 
  Ca1600   1.0000 0.46922  0.90589  0.75984  Biso   1.000  Ca
  P960     1.0000 0.32528  0.90589  0.73666  Biso   1.000  P 
  O4157    1.0000 0.30172  0.90589  0.73688  Biso   1.000  O 
  O4158    1.0000 0.33400  0.90589  0.75306  Biso   1.000  O 
  O4159    1.0000 0.37511  0.89938  0.71831  Biso   1.000  O 
  O4160    1.0000 0.37511  0.96187  0.71831  Biso   1.000  O 
  H319     1.0000 0.37511  0.87920  0.71831  Biso   1.000  H 
  H320     1.0000 0.37522  0.94169  0.71826  Biso   1.000  H 
  O4161    1.0000 0.73942  0.11585  0.26295  Biso   1.000  O 
  O4162    1.0000 0.59286  0.11585  0.26130  Biso   1.000  O 
  O4163    1.0000 0.66805  0.11585  0.27520  Biso   1.000  O 
  O4164    1.0000 0.63580  0.05335  0.25195  Biso   1.000  O 
  O4165    1.0000 0.53236  0.05335  0.25360  Biso   1.000  O 
  O4166    1.0000 0.70717  0.05335  0.23970  Biso   1.000  O 
  O4167    1.0000 0.63580  0.00842  0.25195  Biso   1.000  O 
  O4168    1.0000 0.53236  0.00842  0.25360  Biso   1.000  O 
  O4169    1.0000 0.70717  0.00842  0.23970  Biso   1.000  O 
  O4170    1.0000 0.73942  0.07093  0.26295  Biso   1.000  O 
  O4171    1.0000 0.59286  0.07093  0.26130  Biso   1.000  O 
  O4172    1.0000 0.66805  0.07093  0.27520  Biso   1.000  O 
  Ca1601   1.0000 0.66678  0.12445  0.23034  Biso   1.000  Ca
  Ca1602   1.0000 0.58344  0.06196  0.23035  Biso   1.000  Ca
  Ca1603   1.0000 0.58344  0.12482  0.23035  Biso   1.000  Ca
  Ca1604   1.0000 0.66678  0.06231  0.23034  Biso   1.000  Ca
  Ca1605   1.0000 0.72006  0.09338  0.24410  Biso   1.000  Ca
  P961     1.0000 0.74636  0.09338  0.27194  Biso   1.000  P 
  O4173    1.0000 0.60984  0.09338  0.23317  Biso   1.000  O 
  O4174    1.0000 0.51963  0.09338  0.27447  Biso   1.000  O 
  Ca1606   1.0000 0.62429  0.09338  0.25813  Biso   1.000  Ca
  P962     1.0000 0.57904  0.09338  0.26132  Biso   1.000  P 
  O4175    1.0000 0.56700  0.09338  0.24611  Biso   1.000  O 
  O4176    1.0000 0.56449  0.09338  0.27519  Biso   1.000  O 
  Ca1607   1.0000 0.53099  0.09338  0.24303  Biso   1.000  Ca
  P963     1.0000 0.67495  0.09338  0.26620  Biso   1.000  P 
  O4177    1.0000 0.69850  0.09338  0.26598  Biso   1.000  O 
  O4178    1.0000 0.66622  0.09338  0.24980  Biso   1.000  O 
  Ca1608   1.0000 0.65518  0.03089  0.27081  Biso   1.000  Ca
  P964     1.0000 0.62886  0.03089  0.24296  Biso   1.000  P 
  O4179    1.0000 0.51539  0.03089  0.28174  Biso   1.000  O 
  O4180    1.0000 0.60560  0.03089  0.24043  Biso   1.000  O 
  Ca1609   1.0000 0.50093  0.03089  0.25677  Biso   1.000  Ca
  P965     1.0000 0.54619  0.03089  0.25359  Biso   1.000  P 
  O4181    1.0000 0.55822  0.03089  0.26880  Biso   1.000  O 
  O4182    1.0000 0.56073  0.03089  0.23971  Biso   1.000  O 
  Ca1610   1.0000 0.59422  0.03089  0.27188  Biso   1.000  Ca
  P966     1.0000 0.70028  0.03089  0.24870  Biso   1.000  P 
  O4183    1.0000 0.67672  0.03089  0.24892  Biso   1.000  O 
  O4184    1.0000 0.70900  0.03089  0.26510  Biso   1.000  O 
  O4185    1.0000 0.50011  0.02438  0.23034  Biso   1.000  O 
  O4186    1.0000 0.50011  0.08687  0.23034  Biso   1.000  O 
  H321     1.0000 0.50011  0.00420  0.23034  Biso   1.000  H 
  H322     1.0000 0.50022  0.06669  0.23030  Biso   1.000  H 
  O4187    1.0000 0.61442  0.11585  0.31717  Biso   1.000  O 
  O4188    1.0000 0.71786  0.11585  0.31552  Biso   1.000  O 
  O4189    1.0000 0.54305  0.11585  0.32942  Biso   1.000  O 
  O4190    1.0000 0.51080  0.05335  0.30617  Biso   1.000  O 
  O4191    1.0000 0.65736  0.05335  0.30782  Biso   1.000  O 
  O4192    1.0000 0.58217  0.05335  0.29391  Biso   1.000  O 
  O4193    1.0000 0.51080  0.00842  0.30617  Biso   1.000  O 
  O4194    1.0000 0.65736  0.00842  0.30782  Biso   1.000  O 
  O4195    1.0000 0.58217  0.00842  0.29391  Biso   1.000  O 
  O4196    1.0000 0.61442  0.07093  0.31717  Biso   1.000  O 
  O4197    1.0000 0.71786  0.07093  0.31552  Biso   1.000  O 
  O4198    1.0000 0.54305  0.07093  0.32942  Biso   1.000  O 
  Ca1611   1.0000 0.54178  0.12445  0.28456  Biso   1.000  Ca
  Ca1612   1.0000 0.70844  0.06196  0.28456  Biso   1.000  Ca
  Ca1613   1.0000 0.70844  0.12482  0.28456  Biso   1.000  Ca
  Ca1614   1.0000 0.54178  0.06231  0.28456  Biso   1.000  Ca
  Ca1615   1.0000 0.59506  0.09338  0.29832  Biso   1.000  Ca
  P967     1.0000 0.62136  0.09338  0.32616  Biso   1.000  P 
  O4199    1.0000 0.73484  0.09338  0.28738  Biso   1.000  O 
  O4200    1.0000 0.64463  0.09338  0.32869  Biso   1.000  O 
  Ca1616   1.0000 0.74929  0.09338  0.31234  Biso   1.000  Ca
  P968     1.0000 0.70404  0.09338  0.31554  Biso   1.000  P 
  O4201    1.0000 0.69200  0.09338  0.30033  Biso   1.000  O 
  O4202    1.0000 0.68949  0.09338  0.32941  Biso   1.000  O 
  Ca1617   1.0000 0.65599  0.09338  0.29725  Biso   1.000  Ca
  P969     1.0000 0.54995  0.09338  0.32042  Biso   1.000  P 
  O4203    1.0000 0.57350  0.09338  0.32020  Biso   1.000  O 
  O4204    1.0000 0.54122  0.09338  0.30402  Biso   1.000  O 
  Ca1618   1.0000 0.53018  0.03089  0.32502  Biso   1.000  Ca
  P970     1.0000 0.50386  0.03089  0.29718  Biso   1.000  P 
  O4205    1.0000 0.64039  0.03089  0.33596  Biso   1.000  O 
  O4206    1.0000 0.73060  0.03089  0.29465  Biso   1.000  O 
  Ca1619   1.0000 0.62593  0.03089  0.31099  Biso   1.000  Ca
  P971     1.0000 0.67119  0.03089  0.30781  Biso   1.000  P 
  O4207    1.0000 0.68322  0.03089  0.32302  Biso   1.000  O 
  O4208    1.0000 0.68573  0.03089  0.29393  Biso   1.000  O 
  Ca1620   1.0000 0.71922  0.03089  0.32610  Biso   1.000  Ca
  P972     1.0000 0.57528  0.03089  0.30291  Biso   1.000  P 
  O4209    1.0000 0.55172  0.03089  0.30314  Biso   1.000  O 
  O4210    1.0000 0.58400  0.03089  0.31932  Biso   1.000  O 
  O4211    1.0000 0.62511  0.02438  0.28456  Biso   1.000  O 
  O4212    1.0000 0.62511  0.08687  0.28456  Biso   1.000  O 
  H323     1.0000 0.62511  0.00420  0.28456  Biso   1.000  H 
  H324     1.0000 0.62522  0.06669  0.28452  Biso   1.000  H 
  O4213    1.0000 0.73942  0.11585  0.37139  Biso   1.000  O 
  O4214    1.0000 0.59286  0.11585  0.36974  Biso   1.000  O 
  O4215    1.0000 0.66805  0.11585  0.38364  Biso   1.000  O 
  O4216    1.0000 0.63580  0.05335  0.36038  Biso   1.000  O 
  O4217    1.0000 0.53236  0.05335  0.36204  Biso   1.000  O 
  O4218    1.0000 0.70717  0.05335  0.34813  Biso   1.000  O 
  O4219    1.0000 0.63580  0.00842  0.36038  Biso   1.000  O 
  O4220    1.0000 0.53236  0.00842  0.36204  Biso   1.000  O 
  O4221    1.0000 0.70717  0.00842  0.34813  Biso   1.000  O 
  O4222    1.0000 0.73942  0.07093  0.37139  Biso   1.000  O 
  O4223    1.0000 0.59286  0.07093  0.36974  Biso   1.000  O 
  O4224    1.0000 0.66805  0.07093  0.38364  Biso   1.000  O 
  Ca1621   1.0000 0.66678  0.12445  0.33877  Biso   1.000  Ca
  Ca1622   1.0000 0.58344  0.06196  0.33878  Biso   1.000  Ca
  Ca1623   1.0000 0.58344  0.12482  0.33878  Biso   1.000  Ca
  Ca1624   1.0000 0.66678  0.06231  0.33877  Biso   1.000  Ca
  Ca1625   1.0000 0.72006  0.09338  0.35254  Biso   1.000  Ca
  P973     1.0000 0.74636  0.09338  0.38038  Biso   1.000  P 
  O4225    1.0000 0.60984  0.09338  0.34160  Biso   1.000  O 
  O4226    1.0000 0.51963  0.09338  0.38291  Biso   1.000  O 
  Ca1626   1.0000 0.62429  0.09338  0.36656  Biso   1.000  Ca
  P974     1.0000 0.57904  0.09338  0.36975  Biso   1.000  P 
  O4227    1.0000 0.56700  0.09338  0.35454  Biso   1.000  O 
  O4228    1.0000 0.56449  0.09338  0.38362  Biso   1.000  O 
  Ca1627   1.0000 0.53099  0.09338  0.35146  Biso   1.000  Ca
  P975     1.0000 0.67495  0.09338  0.37464  Biso   1.000  P 
  O4229    1.0000 0.69850  0.09338  0.37442  Biso   1.000  O 
  O4230    1.0000 0.66622  0.09338  0.35824  Biso   1.000  O 
  Ca1628   1.0000 0.65518  0.03089  0.37924  Biso   1.000  Ca
  P976     1.0000 0.62886  0.03089  0.35140  Biso   1.000  P 
  O4231    1.0000 0.51539  0.03089  0.39018  Biso   1.000  O 
  O4232    1.0000 0.60560  0.03089  0.34887  Biso   1.000  O 
  Ca1629   1.0000 0.50093  0.03089  0.36521  Biso   1.000  Ca
  P977     1.0000 0.54619  0.03089  0.36203  Biso   1.000  P 
  O4233    1.0000 0.55822  0.03089  0.37724  Biso   1.000  O 
  O4234    1.0000 0.56073  0.03089  0.34815  Biso   1.000  O 
  Ca1630   1.0000 0.59422  0.03089  0.38032  Biso   1.000  Ca
  P978     1.0000 0.70028  0.03089  0.35713  Biso   1.000  P 
  O4235    1.0000 0.67672  0.03089  0.35736  Biso   1.000  O 
  O4236    1.0000 0.70900  0.03089  0.37353  Biso   1.000  O 
  O4237    1.0000 0.50011  0.02438  0.33878  Biso   1.000  O 
  O4238    1.0000 0.50011  0.08687  0.33878  Biso   1.000  O 
  H325     1.0000 0.50011  0.00420  0.33878  Biso   1.000  H 
  H326     1.0000 0.50022  0.06669  0.33873  Biso   1.000  H 
  O4239    1.0000 0.61442  0.11585  0.42561  Biso   1.000  O 
  O4240    1.0000 0.71786  0.11585  0.42395  Biso   1.000  O 
  O4241    1.0000 0.54305  0.11585  0.43786  Biso   1.000  O 
  O4242    1.0000 0.51080  0.05335  0.41460  Biso   1.000  O 
  O4243    1.0000 0.65736  0.05335  0.41625  Biso   1.000  O 
  O4244    1.0000 0.58217  0.05335  0.40235  Biso   1.000  O 
  O4245    1.0000 0.51080  0.00842  0.41460  Biso   1.000  O 
  O4246    1.0000 0.65736  0.00842  0.41625  Biso   1.000  O 
  O4247    1.0000 0.58217  0.00842  0.40235  Biso   1.000  O 
  O4248    1.0000 0.61442  0.07093  0.42561  Biso   1.000  O 
  O4249    1.0000 0.71786  0.07093  0.42395  Biso   1.000  O 
  O4250    1.0000 0.54305  0.07093  0.43786  Biso   1.000  O 
  Ca1631   1.0000 0.54178  0.12445  0.39299  Biso   1.000  Ca
  Ca1632   1.0000 0.70844  0.06196  0.39300  Biso   1.000  Ca
  Ca1633   1.0000 0.70844  0.12482  0.39300  Biso   1.000  Ca
  Ca1634   1.0000 0.54178  0.06231  0.39299  Biso   1.000  Ca
  Ca1635   1.0000 0.59506  0.09338  0.40675  Biso   1.000  Ca
  P979     1.0000 0.62136  0.09338  0.43460  Biso   1.000  P 
  O4251    1.0000 0.73484  0.09338  0.39582  Biso   1.000  O 
  O4252    1.0000 0.64463  0.09338  0.43713  Biso   1.000  O 
  Ca1636   1.0000 0.74929  0.09338  0.42078  Biso   1.000  Ca
  P980     1.0000 0.70404  0.09338  0.42397  Biso   1.000  P 
  O4253    1.0000 0.69200  0.09338  0.40876  Biso   1.000  O 
  O4254    1.0000 0.68949  0.09338  0.43784  Biso   1.000  O 
  Ca1637   1.0000 0.65599  0.09338  0.40568  Biso   1.000  Ca
  P981     1.0000 0.54995  0.09338  0.42886  Biso   1.000  P 
  O4255    1.0000 0.57350  0.09338  0.42864  Biso   1.000  O 
  O4256    1.0000 0.54122  0.09338  0.41246  Biso   1.000  O 
  Ca1638   1.0000 0.53018  0.03089  0.43346  Biso   1.000  Ca
  P982     1.0000 0.50386  0.03089  0.40561  Biso   1.000  P 
  O4257    1.0000 0.64039  0.03089  0.44439  Biso   1.000  O 
  O4258    1.0000 0.73060  0.03089  0.40309  Biso   1.000  O 
  Ca1639   1.0000 0.62593  0.03089  0.41943  Biso   1.000  Ca
  P983     1.0000 0.67119  0.03089  0.41624  Biso   1.000  P 
  O4259    1.0000 0.68322  0.03089  0.43146  Biso   1.000  O 
  O4260    1.0000 0.68573  0.03089  0.40237  Biso   1.000  O 
  Ca1640   1.0000 0.71922  0.03089  0.43454  Biso   1.000  Ca
  P984     1.0000 0.57528  0.03089  0.41135  Biso   1.000  P 
  O4261    1.0000 0.55172  0.03089  0.41157  Biso   1.000  O 
  O4262    1.0000 0.58400  0.03089  0.42775  Biso   1.000  O 
  O4263    1.0000 0.62511  0.02438  0.39300  Biso   1.000  O 
  O4264    1.0000 0.62511  0.08687  0.39300  Biso   1.000  O 
  H327     1.0000 0.62511  0.00420  0.39300  Biso   1.000  H 
  H328     1.0000 0.62522  0.06669  0.39295  Biso   1.000  H 
  O4265    1.0000 0.73942  0.11585  0.47982  Biso   1.000  O 
  O4266    1.0000 0.59286  0.11585  0.47817  Biso   1.000  O 
  O4267    1.0000 0.66805  0.11585  0.49208  Biso   1.000  O 
  O4268    1.0000 0.63580  0.05335  0.46882  Biso   1.000  O 
  O4269    1.0000 0.53236  0.05335  0.47047  Biso   1.000  O 
  O4270    1.0000 0.70717  0.05335  0.45657  Biso   1.000  O 
  O4271    1.0000 0.63580  0.00842  0.46882  Biso   1.000  O 
  O4272    1.0000 0.53236  0.00842  0.47047  Biso   1.000  O 
  O4273    1.0000 0.70717  0.00842  0.45657  Biso   1.000  O 
  O4274    1.0000 0.73942  0.07093  0.47982  Biso   1.000  O 
  O4275    1.0000 0.59286  0.07093  0.47817  Biso   1.000  O 
  O4276    1.0000 0.66805  0.07093  0.49208  Biso   1.000  O 
  Ca1641   1.0000 0.66678  0.12445  0.44721  Biso   1.000  Ca
  Ca1642   1.0000 0.58344  0.06196  0.44722  Biso   1.000  Ca
  Ca1643   1.0000 0.58344  0.12482  0.44722  Biso   1.000  Ca
  Ca1644   1.0000 0.66678  0.06231  0.44721  Biso   1.000  Ca
  Ca1645   1.0000 0.72006  0.09338  0.46097  Biso   1.000  Ca
  P985     1.0000 0.74636  0.09338  0.48881  Biso   1.000  P 
  O4277    1.0000 0.60984  0.09338  0.45004  Biso   1.000  O 
  O4278    1.0000 0.51963  0.09338  0.49134  Biso   1.000  O 
  Ca1646   1.0000 0.62429  0.09338  0.47500  Biso   1.000  Ca
  P986     1.0000 0.57904  0.09338  0.47819  Biso   1.000  P 
  O4279    1.0000 0.56700  0.09338  0.46298  Biso   1.000  O 
  O4280    1.0000 0.56449  0.09338  0.49206  Biso   1.000  O 
  Ca1647   1.0000 0.53099  0.09338  0.45990  Biso   1.000  Ca
  P987     1.0000 0.67495  0.09338  0.48308  Biso   1.000  P 
  O4281    1.0000 0.69850  0.09338  0.48285  Biso   1.000  O 
  O4282    1.0000 0.66622  0.09338  0.46667  Biso   1.000  O 
  Ca1648   1.0000 0.65518  0.03089  0.48768  Biso   1.000  Ca
  P988     1.0000 0.62886  0.03089  0.45983  Biso   1.000  P 
  O4283    1.0000 0.51539  0.03089  0.49861  Biso   1.000  O 
  O4284    1.0000 0.60560  0.03089  0.45731  Biso   1.000  O 
  Ca1649   1.0000 0.50093  0.03089  0.47365  Biso   1.000  Ca
  P989     1.0000 0.54619  0.03089  0.47046  Biso   1.000  P 
  O4285    1.0000 0.55822  0.03089  0.48568  Biso   1.000  O 
  O4286    1.0000 0.56073  0.03089  0.45658  Biso   1.000  O 
  Ca1650   1.0000 0.59422  0.03089  0.48875  Biso   1.000  Ca
  P990     1.0000 0.70028  0.03089  0.46557  Biso   1.000  P 
  O4287    1.0000 0.67672  0.03089  0.46579  Biso   1.000  O 
  O4288    1.0000 0.70900  0.03089  0.48197  Biso   1.000  O 
  O4289    1.0000 0.50011  0.02438  0.44722  Biso   1.000  O 
  O4290    1.0000 0.50011  0.08687  0.44722  Biso   1.000  O 
  H329     1.0000 0.50011  0.00420  0.44722  Biso   1.000  H 
  H330     1.0000 0.50022  0.06669  0.44717  Biso   1.000  H 
  O4291    1.0000 0.61442  0.11585  0.53404  Biso   1.000  O 
  O4292    1.0000 0.71786  0.11585  0.53239  Biso   1.000  O 
  O4293    1.0000 0.54305  0.11585  0.54629  Biso   1.000  O 
  O4294    1.0000 0.51080  0.05335  0.52304  Biso   1.000  O 
  O4295    1.0000 0.65736  0.05335  0.52469  Biso   1.000  O 
  O4296    1.0000 0.58217  0.05335  0.51079  Biso   1.000  O 
  O4297    1.0000 0.51080  0.00842  0.52304  Biso   1.000  O 
  O4298    1.0000 0.65736  0.00842  0.52469  Biso   1.000  O 
  O4299    1.0000 0.58217  0.00842  0.51079  Biso   1.000  O 
  O4300    1.0000 0.61442  0.07093  0.53404  Biso   1.000  O 
  O4301    1.0000 0.71786  0.07093  0.53239  Biso   1.000  O 
  O4302    1.0000 0.54305  0.07093  0.54629  Biso   1.000  O 
  Ca1651   1.0000 0.54178  0.12445  0.50143  Biso   1.000  Ca
  Ca1652   1.0000 0.70844  0.06196  0.50144  Biso   1.000  Ca
  Ca1653   1.0000 0.70844  0.12482  0.50144  Biso   1.000  Ca
  Ca1654   1.0000 0.54178  0.06231  0.50143  Biso   1.000  Ca
  Ca1655   1.0000 0.59506  0.09338  0.51519  Biso   1.000  Ca
  P991     1.0000 0.62136  0.09338  0.54303  Biso   1.000  P 
  O4303    1.0000 0.73484  0.09338  0.50426  Biso   1.000  O 
  O4304    1.0000 0.64463  0.09338  0.54556  Biso   1.000  O 
  Ca1656   1.0000 0.74929  0.09338  0.52922  Biso   1.000  Ca
  P992     1.0000 0.70404  0.09338  0.53241  Biso   1.000  P 
  O4305    1.0000 0.69200  0.09338  0.51720  Biso   1.000  O 
  O4306    1.0000 0.68949  0.09338  0.54628  Biso   1.000  O 
  Ca1657   1.0000 0.65599  0.09338  0.51412  Biso   1.000  Ca
  P993     1.0000 0.54995  0.09338  0.53729  Biso   1.000  P 
  O4307    1.0000 0.57350  0.09338  0.53707  Biso   1.000  O 
  O4308    1.0000 0.54122  0.09338  0.52089  Biso   1.000  O 
  Ca1658   1.0000 0.53018  0.03089  0.54190  Biso   1.000  Ca
  P994     1.0000 0.50386  0.03089  0.51405  Biso   1.000  P 
  O4309    1.0000 0.64039  0.03089  0.55283  Biso   1.000  O 
  O4310    1.0000 0.73060  0.03089  0.51152  Biso   1.000  O 
  Ca1659   1.0000 0.62593  0.03089  0.52786  Biso   1.000  Ca
  P995     1.0000 0.67119  0.03089  0.52468  Biso   1.000  P 
  O4311    1.0000 0.68322  0.03089  0.53989  Biso   1.000  O 
  O4312    1.0000 0.68573  0.03089  0.51080  Biso   1.000  O 
  Ca1660   1.0000 0.71922  0.03089  0.54297  Biso   1.000  Ca
  P996     1.0000 0.57528  0.03089  0.51979  Biso   1.000  P 
  O4313    1.0000 0.55172  0.03089  0.52001  Biso   1.000  O 
  O4314    1.0000 0.58400  0.03089  0.53619  Biso   1.000  O 
  O4315    1.0000 0.62511  0.02438  0.50143  Biso   1.000  O 
  O4316    1.0000 0.62511  0.08687  0.50143  Biso   1.000  O 
  H331     1.0000 0.62511  0.00420  0.50143  Biso   1.000  H 
  H332     1.0000 0.62522  0.06669  0.50139  Biso   1.000  H 
  O4317    1.0000 0.73942  0.11585  0.58826  Biso   1.000  O 
  O4318    1.0000 0.59286  0.11585  0.58661  Biso   1.000  O 
  O4319    1.0000 0.66805  0.11585  0.60051  Biso   1.000  O 
  O4320    1.0000 0.63580  0.05335  0.57726  Biso   1.000  O 
  O4321    1.0000 0.53236  0.05335  0.57891  Biso   1.000  O 
  O4322    1.0000 0.70717  0.05335  0.56500  Biso   1.000  O 
  O4323    1.0000 0.63580  0.00842  0.57726  Biso   1.000  O 
  O4324    1.0000 0.53236  0.00842  0.57891  Biso   1.000  O 
  O4325    1.0000 0.70717  0.00842  0.56500  Biso   1.000  O 
  O4326    1.0000 0.73942  0.07093  0.58826  Biso   1.000  O 
  O4327    1.0000 0.59286  0.07093  0.58661  Biso   1.000  O 
  O4328    1.0000 0.66805  0.07093  0.60051  Biso   1.000  O 
  Ca1661   1.0000 0.66678  0.12445  0.55565  Biso   1.000  Ca
  Ca1662   1.0000 0.58344  0.06196  0.55565  Biso   1.000  Ca
  Ca1663   1.0000 0.58344  0.12482  0.55565  Biso   1.000  Ca
  Ca1664   1.0000 0.66678  0.06231  0.55565  Biso   1.000  Ca
  Ca1665   1.0000 0.72006  0.09338  0.56941  Biso   1.000  Ca
  P997     1.0000 0.74636  0.09338  0.59725  Biso   1.000  P 
  O4329    1.0000 0.60984  0.09338  0.55847  Biso   1.000  O 
  O4330    1.0000 0.51963  0.09338  0.59978  Biso   1.000  O 
  Ca1666   1.0000 0.62429  0.09338  0.58343  Biso   1.000  Ca
  P998     1.0000 0.57904  0.09338  0.58662  Biso   1.000  P 
  O4331    1.0000 0.56700  0.09338  0.57141  Biso   1.000  O 
  O4332    1.0000 0.56449  0.09338  0.60050  Biso   1.000  O 
  Ca1667   1.0000 0.53099  0.09338  0.56834  Biso   1.000  Ca
  P999     1.0000 0.67495  0.09338  0.59151  Biso   1.000  P 
  O4333    1.0000 0.69850  0.09338  0.59129  Biso   1.000  O 
  O4334    1.0000 0.66622  0.09338  0.57511  Biso   1.000  O 
  Ca1668   1.0000 0.65518  0.03089  0.59611  Biso   1.000  Ca
  P1000    1.0000 0.62886  0.03089  0.56827  Biso   1.000  P 
  O4335    1.0000 0.51539  0.03089  0.60705  Biso   1.000  O 
  O4336    1.0000 0.60560  0.03089  0.56574  Biso   1.000  O 
  Ca1669   1.0000 0.50093  0.03089  0.58208  Biso   1.000  Ca
  P1001    1.0000 0.54619  0.03089  0.57890  Biso   1.000  P 
  O4337    1.0000 0.55822  0.03089  0.59411  Biso   1.000  O 
  O4338    1.0000 0.56073  0.03089  0.56502  Biso   1.000  O 
  Ca1670   1.0000 0.59422  0.03089  0.59719  Biso   1.000  Ca
  P1002    1.0000 0.70028  0.03089  0.57400  Biso   1.000  P 
  O4339    1.0000 0.67672  0.03089  0.57423  Biso   1.000  O 
  O4340    1.0000 0.70900  0.03089  0.59041  Biso   1.000  O 
  O4341    1.0000 0.50011  0.02438  0.55565  Biso   1.000  O 
  O4342    1.0000 0.50011  0.08687  0.55565  Biso   1.000  O 
  H333     1.0000 0.50011  0.00420  0.55565  Biso   1.000  H 
  H334     1.0000 0.50022  0.06669  0.55561  Biso   1.000  H 
  O4343    1.0000 0.61442  0.11585  0.64248  Biso   1.000  O 
  O4344    1.0000 0.71786  0.11585  0.64083  Biso   1.000  O 
  O4345    1.0000 0.54305  0.11585  0.65473  Biso   1.000  O 
  O4346    1.0000 0.51080  0.05335  0.63147  Biso   1.000  O 
  O4347    1.0000 0.65736  0.05335  0.63313  Biso   1.000  O 
  O4348    1.0000 0.58217  0.05335  0.61922  Biso   1.000  O 
  O4349    1.0000 0.51080  0.00842  0.63147  Biso   1.000  O 
  O4350    1.0000 0.65736  0.00842  0.63313  Biso   1.000  O 
  O4351    1.0000 0.58217  0.00842  0.61922  Biso   1.000  O 
  O4352    1.0000 0.61442  0.07093  0.64248  Biso   1.000  O 
  O4353    1.0000 0.71786  0.07093  0.64083  Biso   1.000  O 
  O4354    1.0000 0.54305  0.07093  0.65473  Biso   1.000  O 
  Ca1671   1.0000 0.54178  0.12445  0.60986  Biso   1.000  Ca
  Ca1672   1.0000 0.70844  0.06196  0.60987  Biso   1.000  Ca
  Ca1673   1.0000 0.70844  0.12482  0.60987  Biso   1.000  Ca
  Ca1674   1.0000 0.54178  0.06231  0.60986  Biso   1.000  Ca
  Ca1675   1.0000 0.59506  0.09338  0.62363  Biso   1.000  Ca
  P1003    1.0000 0.62136  0.09338  0.65147  Biso   1.000  P 
  O4355    1.0000 0.73484  0.09338  0.61269  Biso   1.000  O 
  O4356    1.0000 0.64463  0.09338  0.65400  Biso   1.000  O 
  Ca1676   1.0000 0.74929  0.09338  0.63765  Biso   1.000  Ca
  P1004    1.0000 0.70404  0.09338  0.64084  Biso   1.000  P 
  O4357    1.0000 0.69200  0.09338  0.62563  Biso   1.000  O 
  O4358    1.0000 0.68949  0.09338  0.65471  Biso   1.000  O 
  Ca1677   1.0000 0.65599  0.09338  0.62255  Biso   1.000  Ca
  P1005    1.0000 0.54995  0.09338  0.64573  Biso   1.000  P 
  O4359    1.0000 0.57350  0.09338  0.64551  Biso   1.000  O 
  O4360    1.0000 0.54122  0.09338  0.62933  Biso   1.000  O 
  Ca1678   1.0000 0.53018  0.03089  0.65033  Biso   1.000  Ca
  P1006    1.0000 0.50386  0.03089  0.62248  Biso   1.000  P 
  O4361    1.0000 0.64039  0.03089  0.66127  Biso   1.000  O 
  O4362    1.0000 0.73060  0.03089  0.61996  Biso   1.000  O 
  Ca1679   1.0000 0.62593  0.03089  0.63630  Biso   1.000  Ca
  P1007    1.0000 0.67119  0.03089  0.63312  Biso   1.000  P 
  O4363    1.0000 0.68322  0.03089  0.64833  Biso   1.000  O 
  O4364    1.0000 0.68573  0.03089  0.61924  Biso   1.000  O 
  Ca1680   1.0000 0.71922  0.03089  0.65141  Biso   1.000  Ca
  P1008    1.0000 0.57528  0.03089  0.62822  Biso   1.000  P 
  O4365    1.0000 0.55172  0.03089  0.62845  Biso   1.000  O 
  O4366    1.0000 0.58400  0.03089  0.64462  Biso   1.000  O 
  O4367    1.0000 0.62511  0.02438  0.60987  Biso   1.000  O 
  O4368    1.0000 0.62511  0.08687  0.60987  Biso   1.000  O 
  H335     1.0000 0.62511  0.00420  0.60987  Biso   1.000  H 
  H336     1.0000 0.62522  0.06669  0.60982  Biso   1.000  H 
  O4369    1.0000 0.73942  0.11585  0.69670  Biso   1.000  O 
  O4370    1.0000 0.59286  0.11585  0.69504  Biso   1.000  O 
  O4371    1.0000 0.66805  0.11585  0.70895  Biso   1.000  O 
  O4372    1.0000 0.63580  0.05335  0.68569  Biso   1.000  O 
  O4373    1.0000 0.53236  0.05335  0.68734  Biso   1.000  O 
  O4374    1.0000 0.70717  0.05335  0.67344  Biso   1.000  O 
  O4375    1.0000 0.63580  0.00842  0.68569  Biso   1.000  O 
  O4376    1.0000 0.53236  0.00842  0.68734  Biso   1.000  O 
  O4377    1.0000 0.70717  0.00842  0.67344  Biso   1.000  O 
  O4378    1.0000 0.73942  0.07093  0.69670  Biso   1.000  O 
  O4379    1.0000 0.59286  0.07093  0.69504  Biso   1.000  O 
  O4380    1.0000 0.66805  0.07093  0.70895  Biso   1.000  O 
  Ca1681   1.0000 0.66678  0.12445  0.66408  Biso   1.000  Ca
  Ca1682   1.0000 0.58344  0.06196  0.66409  Biso   1.000  Ca
  Ca1683   1.0000 0.58344  0.12482  0.66409  Biso   1.000  Ca
  Ca1684   1.0000 0.66678  0.06231  0.66408  Biso   1.000  Ca
  Ca1685   1.0000 0.72006  0.09338  0.67784  Biso   1.000  Ca
  P1009    1.0000 0.74636  0.09338  0.70569  Biso   1.000  P 
  O4381    1.0000 0.60984  0.09338  0.66691  Biso   1.000  O 
  O4382    1.0000 0.51963  0.09338  0.70822  Biso   1.000  O 
  Ca1686   1.0000 0.62429  0.09338  0.69187  Biso   1.000  Ca
  P1010    1.0000 0.57904  0.09338  0.69506  Biso   1.000  P 
  O4383    1.0000 0.56700  0.09338  0.67985  Biso   1.000  O 
  O4384    1.0000 0.56449  0.09338  0.70893  Biso   1.000  O 
  Ca1687   1.0000 0.53099  0.09338  0.67677  Biso   1.000  Ca
  P1011    1.0000 0.67495  0.09338  0.69995  Biso   1.000  P 
  O4385    1.0000 0.69850  0.09338  0.69973  Biso   1.000  O 
  O4386    1.0000 0.66622  0.09338  0.68355  Biso   1.000  O 
  Ca1688   1.0000 0.65518  0.03089  0.70455  Biso   1.000  Ca
  P1012    1.0000 0.62886  0.03089  0.67670  Biso   1.000  P 
  O4387    1.0000 0.51539  0.03089  0.71548  Biso   1.000  O 
  O4388    1.0000 0.60560  0.03089  0.67418  Biso   1.000  O 
  Ca1689   1.0000 0.50093  0.03089  0.69052  Biso   1.000  Ca
  P1013    1.0000 0.54619  0.03089  0.68733  Biso   1.000  P 
  O4389    1.0000 0.55822  0.03089  0.70255  Biso   1.000  O 
  O4390    1.0000 0.56073  0.03089  0.67346  Biso   1.000  O 
  Ca1690   1.0000 0.59422  0.03089  0.70563  Biso   1.000  Ca
  P1014    1.0000 0.70028  0.03089  0.68244  Biso   1.000  P 
  O4391    1.0000 0.67672  0.03089  0.68266  Biso   1.000  O 
  O4392    1.0000 0.70900  0.03089  0.69884  Biso   1.000  O 
  O4393    1.0000 0.50011  0.02438  0.66409  Biso   1.000  O 
  O4394    1.0000 0.50011  0.08687  0.66409  Biso   1.000  O 
  H337     1.0000 0.50011  0.00420  0.66409  Biso   1.000  H 
  H338     1.0000 0.50022  0.06669  0.66404  Biso   1.000  H 
  O4395    1.0000 0.61442  0.11585  0.75091  Biso   1.000  O 
  O4396    1.0000 0.71786  0.11585  0.74926  Biso   1.000  O 
  O4397    1.0000 0.54305  0.11585  0.76317  Biso   1.000  O 
  O4398    1.0000 0.51080  0.05335  0.73991  Biso   1.000  O 
  O4399    1.0000 0.65736  0.05335  0.74156  Biso   1.000  O 
  O4400    1.0000 0.58217  0.05335  0.72766  Biso   1.000  O 
  O4401    1.0000 0.51080  0.00842  0.73991  Biso   1.000  O 
  O4402    1.0000 0.65736  0.00842  0.74156  Biso   1.000  O 
  O4403    1.0000 0.58217  0.00842  0.72766  Biso   1.000  O 
  O4404    1.0000 0.61442  0.07093  0.75091  Biso   1.000  O 
  O4405    1.0000 0.71786  0.07093  0.74926  Biso   1.000  O 
  O4406    1.0000 0.54305  0.07093  0.76317  Biso   1.000  O 
  Ca1691   1.0000 0.54178  0.12445  0.71830  Biso   1.000  Ca
  Ca1692   1.0000 0.70844  0.06196  0.71831  Biso   1.000  Ca
  Ca1693   1.0000 0.70844  0.12482  0.71831  Biso   1.000  Ca
  Ca1694   1.0000 0.54178  0.06231  0.71830  Biso   1.000  Ca
  Ca1695   1.0000 0.59506  0.09338  0.73206  Biso   1.000  Ca
  P1015    1.0000 0.62136  0.09338  0.75990  Biso   1.000  P 
  O4407    1.0000 0.73484  0.09338  0.72113  Biso   1.000  O 
  O4408    1.0000 0.64463  0.09338  0.76243  Biso   1.000  O 
  Ca1696   1.0000 0.74929  0.09338  0.74609  Biso   1.000  Ca
  P1016    1.0000 0.70404  0.09338  0.74928  Biso   1.000  P 
  O4409    1.0000 0.69200  0.09338  0.73407  Biso   1.000  O 
  O4410    1.0000 0.68949  0.09338  0.76315  Biso   1.000  O 
  Ca1697   1.0000 0.65599  0.09338  0.73099  Biso   1.000  Ca
  P1017    1.0000 0.54995  0.09338  0.75417  Biso   1.000  P 
  O4411    1.0000 0.57350  0.09338  0.75394  Biso   1.000  O 
  O4412    1.0000 0.54122  0.09338  0.73776  Biso   1.000  O 
  Ca1698   1.0000 0.53018  0.03089  0.75877  Biso   1.000  Ca
  P1018    1.0000 0.50386  0.03089  0.73092  Biso   1.000  P 
  O4413    1.0000 0.64039  0.03089  0.76970  Biso   1.000  O 
  O4414    1.0000 0.73060  0.03089  0.72840  Biso   1.000  O 
  Ca1699   1.0000 0.62593  0.03089  0.74474  Biso   1.000  Ca
  P1019    1.0000 0.67119  0.03089  0.74155  Biso   1.000  P 
  O4415    1.0000 0.68322  0.03089  0.75677  Biso   1.000  O 
  O4416    1.0000 0.68573  0.03089  0.72767  Biso   1.000  O 
  Ca1700   1.0000 0.71922  0.03089  0.75984  Biso   1.000  Ca
  P1020    1.0000 0.57528  0.03089  0.73666  Biso   1.000  P 
  O4417    1.0000 0.55172  0.03089  0.73688  Biso   1.000  O 
  O4418    1.0000 0.58400  0.03089  0.75306  Biso   1.000  O 
  O4419    1.0000 0.62511  0.02438  0.71831  Biso   1.000  O 
  O4420    1.0000 0.62511  0.08687  0.71831  Biso   1.000  O 
  H339     1.0000 0.62511  0.00420  0.71831  Biso   1.000  H 
  H340     1.0000 0.62522  0.06669  0.71826  Biso   1.000  H 
  O4421    1.0000 0.73942  0.24085  0.26295  Biso   1.000  O 
  O4422    1.0000 0.59286  0.24085  0.26130  Biso   1.000  O 
  O4423    1.0000 0.66805  0.24085  0.27520  Biso   1.000  O 
  O4424    1.0000 0.63580  0.17835  0.25195  Biso   1.000  O 
  O4425    1.0000 0.53236  0.17835  0.25360  Biso   1.000  O 
  O4426    1.0000 0.70717  0.17835  0.23970  Biso   1.000  O 
  O4427    1.0000 0.63580  0.13342  0.25195  Biso   1.000  O 
  O4428    1.0000 0.53236  0.13342  0.25360  Biso   1.000  O 
  O4429    1.0000 0.70717  0.13342  0.23970  Biso   1.000  O 
  O4430    1.0000 0.73942  0.19593  0.26295  Biso   1.000  O 
  O4431    1.0000 0.59286  0.19593  0.26130  Biso   1.000  O 
  O4432    1.0000 0.66805  0.19593  0.27520  Biso   1.000  O 
  Ca1701   1.0000 0.66678  0.24945  0.23034  Biso   1.000  Ca
  Ca1702   1.0000 0.58344  0.18696  0.23035  Biso   1.000  Ca
  Ca1703   1.0000 0.58344  0.24982  0.23035  Biso   1.000  Ca
  Ca1704   1.0000 0.66678  0.18731  0.23034  Biso   1.000  Ca
  Ca1705   1.0000 0.72006  0.21838  0.24410  Biso   1.000  Ca
  P1021    1.0000 0.74636  0.21838  0.27194  Biso   1.000  P 
  O4433    1.0000 0.60984  0.21838  0.23317  Biso   1.000  O 
  O4434    1.0000 0.51963  0.21838  0.27447  Biso   1.000  O 
  Ca1706   1.0000 0.62429  0.21838  0.25813  Biso   1.000  Ca
  P1022    1.0000 0.57904  0.21838  0.26132  Biso   1.000  P 
  O4435    1.0000 0.56700  0.21838  0.24611  Biso   1.000  O 
  O4436    1.0000 0.56449  0.21838  0.27519  Biso   1.000  O 
  Ca1707   1.0000 0.53099  0.21838  0.24303  Biso   1.000  Ca
  P1023    1.0000 0.67495  0.21838  0.26620  Biso   1.000  P 
  O4437    1.0000 0.69850  0.21838  0.26598  Biso   1.000  O 
  O4438    1.0000 0.66622  0.21838  0.24980  Biso   1.000  O 
  Ca1708   1.0000 0.65518  0.15589  0.27081  Biso   1.000  Ca
  P1024    1.0000 0.62886  0.15589  0.24296  Biso   1.000  P 
  O4439    1.0000 0.51539  0.15589  0.28174  Biso   1.000  O 
  O4440    1.0000 0.60560  0.15589  0.24043  Biso   1.000  O 
  Ca1709   1.0000 0.50093  0.15589  0.25677  Biso   1.000  Ca
  P1025    1.0000 0.54619  0.15589  0.25359  Biso   1.000  P 
  O4441    1.0000 0.55822  0.15589  0.26880  Biso   1.000  O 
  O4442    1.0000 0.56073  0.15589  0.23971  Biso   1.000  O 
  Ca1710   1.0000 0.59422  0.15589  0.27188  Biso   1.000  Ca
  P1026    1.0000 0.70028  0.15589  0.24870  Biso   1.000  P 
  O4443    1.0000 0.67672  0.15589  0.24892  Biso   1.000  O 
  O4444    1.0000 0.70900  0.15589  0.26510  Biso   1.000  O 
  O4445    1.0000 0.50011  0.14938  0.23034  Biso   1.000  O 
  O4446    1.0000 0.50011  0.21187  0.23034  Biso   1.000  O 
  H341     1.0000 0.50011  0.12920  0.23034  Biso   1.000  H 
  H342     1.0000 0.50022  0.19169  0.23030  Biso   1.000  H 
  O4447    1.0000 0.61442  0.24085  0.31717  Biso   1.000  O 
  O4448    1.0000 0.71786  0.24085  0.31552  Biso   1.000  O 
  O4449    1.0000 0.54305  0.24085  0.32942  Biso   1.000  O 
  O4450    1.0000 0.51080  0.17835  0.30617  Biso   1.000  O 
  O4451    1.0000 0.65736  0.17835  0.30782  Biso   1.000  O 
  O4452    1.0000 0.58217  0.17835  0.29391  Biso   1.000  O 
  O4453    1.0000 0.51080  0.13342  0.30617  Biso   1.000  O 
  O4454    1.0000 0.65736  0.13342  0.30782  Biso   1.000  O 
  O4455    1.0000 0.58217  0.13342  0.29391  Biso   1.000  O 
  O4456    1.0000 0.61442  0.19593  0.31717  Biso   1.000  O 
  O4457    1.0000 0.71786  0.19593  0.31552  Biso   1.000  O 
  O4458    1.0000 0.54305  0.19593  0.32942  Biso   1.000  O 
  Ca1711   1.0000 0.54178  0.24945  0.28456  Biso   1.000  Ca
  Ca1712   1.0000 0.70844  0.18696  0.28456  Biso   1.000  Ca
  Ca1713   1.0000 0.70844  0.24982  0.28456  Biso   1.000  Ca
  Ca1714   1.0000 0.54178  0.18731  0.28456  Biso   1.000  Ca
  Ca1715   1.0000 0.59506  0.21838  0.29832  Biso   1.000  Ca
  P1027    1.0000 0.62136  0.21838  0.32616  Biso   1.000  P 
  O4459    1.0000 0.73484  0.21838  0.28738  Biso   1.000  O 
  O4460    1.0000 0.64463  0.21838  0.32869  Biso   1.000  O 
  Ca1716   1.0000 0.74929  0.21838  0.31234  Biso   1.000  Ca
  P1028    1.0000 0.70404  0.21838  0.31554  Biso   1.000  P 
  O4461    1.0000 0.69200  0.21838  0.30033  Biso   1.000  O 
  O4462    1.0000 0.68949  0.21838  0.32941  Biso   1.000  O 
  Ca1717   1.0000 0.65599  0.21838  0.29725  Biso   1.000  Ca
  P1029    1.0000 0.54995  0.21838  0.32042  Biso   1.000  P 
  O4463    1.0000 0.57350  0.21838  0.32020  Biso   1.000  O 
  O4464    1.0000 0.54122  0.21838  0.30402  Biso   1.000  O 
  Ca1718   1.0000 0.53018  0.15589  0.32502  Biso   1.000  Ca
  P1030    1.0000 0.50386  0.15589  0.29718  Biso   1.000  P 
  O4465    1.0000 0.64039  0.15589  0.33596  Biso   1.000  O 
  O4466    1.0000 0.73060  0.15589  0.29465  Biso   1.000  O 
  Ca1719   1.0000 0.62593  0.15589  0.31099  Biso   1.000  Ca
  P1031    1.0000 0.67119  0.15589  0.30781  Biso   1.000  P 
  O4467    1.0000 0.68322  0.15589  0.32302  Biso   1.000  O 
  O4468    1.0000 0.68573  0.15589  0.29393  Biso   1.000  O 
  Ca1720   1.0000 0.71922  0.15589  0.32610  Biso   1.000  Ca
  P1032    1.0000 0.57528  0.15589  0.30291  Biso   1.000  P 
  O4469    1.0000 0.55172  0.15589  0.30314  Biso   1.000  O 
  O4470    1.0000 0.58400  0.15589  0.31932  Biso   1.000  O 
  O4471    1.0000 0.62511  0.14938  0.28456  Biso   1.000  O 
  O4472    1.0000 0.62511  0.21187  0.28456  Biso   1.000  O 
  H343     1.0000 0.62511  0.12920  0.28456  Biso   1.000  H 
  H344     1.0000 0.62522  0.19169  0.28452  Biso   1.000  H 
  O4473    1.0000 0.73942  0.24085  0.37139  Biso   1.000  O 
  O4474    1.0000 0.59286  0.24085  0.36974  Biso   1.000  O 
  O4475    1.0000 0.66805  0.24085  0.38364  Biso   1.000  O 
  O4476    1.0000 0.63580  0.17835  0.36038  Biso   1.000  O 
  O4477    1.0000 0.53236  0.17835  0.36204  Biso   1.000  O 
  O4478    1.0000 0.70717  0.17835  0.34813  Biso   1.000  O 
  O4479    1.0000 0.63580  0.13342  0.36038  Biso   1.000  O 
  O4480    1.0000 0.53236  0.13342  0.36204  Biso   1.000  O 
  O4481    1.0000 0.70717  0.13342  0.34813  Biso   1.000  O 
  O4482    1.0000 0.73942  0.19593  0.37139  Biso   1.000  O 
  O4483    1.0000 0.59286  0.19593  0.36974  Biso   1.000  O 
  O4484    1.0000 0.66805  0.19593  0.38364  Biso   1.000  O 
  Ca1721   1.0000 0.66678  0.24945  0.33877  Biso   1.000  Ca
  Ca1722   1.0000 0.58344  0.18696  0.33878  Biso   1.000  Ca
  Ca1723   1.0000 0.58344  0.24982  0.33878  Biso   1.000  Ca
  Ca1724   1.0000 0.66678  0.18731  0.33877  Biso   1.000  Ca
  Ca1725   1.0000 0.72006  0.21838  0.35254  Biso   1.000  Ca
  P1033    1.0000 0.74636  0.21838  0.38038  Biso   1.000  P 
  O4485    1.0000 0.60984  0.21838  0.34160  Biso   1.000  O 
  O4486    1.0000 0.51963  0.21838  0.38291  Biso   1.000  O 
  Ca1726   1.0000 0.62429  0.21838  0.36656  Biso   1.000  Ca
  P1034    1.0000 0.57904  0.21838  0.36975  Biso   1.000  P 
  O4487    1.0000 0.56700  0.21838  0.35454  Biso   1.000  O 
  O4488    1.0000 0.56449  0.21838  0.38362  Biso   1.000  O 
  Ca1727   1.0000 0.53099  0.21838  0.35146  Biso   1.000  Ca
  P1035    1.0000 0.67495  0.21838  0.37464  Biso   1.000  P 
  O4489    1.0000 0.69850  0.21838  0.37442  Biso   1.000  O 
  O4490    1.0000 0.66622  0.21838  0.35824  Biso   1.000  O 
  Ca1728   1.0000 0.65518  0.15589  0.37924  Biso   1.000  Ca
  P1036    1.0000 0.62886  0.15589  0.35140  Biso   1.000  P 
  O4491    1.0000 0.51539  0.15589  0.39018  Biso   1.000  O 
  O4492    1.0000 0.60560  0.15589  0.34887  Biso   1.000  O 
  Ca1729   1.0000 0.50093  0.15589  0.36521  Biso   1.000  Ca
  P1037    1.0000 0.54619  0.15589  0.36203  Biso   1.000  P 
  O4493    1.0000 0.55822  0.15589  0.37724  Biso   1.000  O 
  O4494    1.0000 0.56073  0.15589  0.34815  Biso   1.000  O 
  Ca1730   1.0000 0.59422  0.15589  0.38032  Biso   1.000  Ca
  P1038    1.0000 0.70028  0.15589  0.35713  Biso   1.000  P 
  O4495    1.0000 0.67672  0.15589  0.35736  Biso   1.000  O 
  O4496    1.0000 0.70900  0.15589  0.37353  Biso   1.000  O 
  O4497    1.0000 0.50011  0.14938  0.33878  Biso   1.000  O 
  O4498    1.0000 0.50011  0.21187  0.33878  Biso   1.000  O 
  H345     1.0000 0.50011  0.12920  0.33878  Biso   1.000  H 
  H346     1.0000 0.50022  0.19169  0.33873  Biso   1.000  H 
  O4499    1.0000 0.61442  0.24085  0.42561  Biso   1.000  O 
  O4500    1.0000 0.71786  0.24085  0.42395  Biso   1.000  O 
  O4501    1.0000 0.54305  0.24085  0.43786  Biso   1.000  O 
  O4502    1.0000 0.51080  0.17835  0.41460  Biso   1.000  O 
  O4503    1.0000 0.65736  0.17835  0.41625  Biso   1.000  O 
  O4504    1.0000 0.58217  0.17835  0.40235  Biso   1.000  O 
  O4505    1.0000 0.51080  0.13342  0.41460  Biso   1.000  O 
  O4506    1.0000 0.65736  0.13342  0.41625  Biso   1.000  O 
  O4507    1.0000 0.58217  0.13342  0.40235  Biso   1.000  O 
  O4508    1.0000 0.61442  0.19593  0.42561  Biso   1.000  O 
  O4509    1.0000 0.71786  0.19593  0.42395  Biso   1.000  O 
  O4510    1.0000 0.54305  0.19593  0.43786  Biso   1.000  O 
  Ca1731   1.0000 0.54178  0.24945  0.39299  Biso   1.000  Ca
  Ca1732   1.0000 0.70844  0.18696  0.39300  Biso   1.000  Ca
  Ca1733   1.0000 0.70844  0.24982  0.39300  Biso   1.000  Ca
  Ca1734   1.0000 0.54178  0.18731  0.39299  Biso   1.000  Ca
  Ca1735   1.0000 0.59506  0.21838  0.40675  Biso   1.000  Ca
  P1039    1.0000 0.62136  0.21838  0.43460  Biso   1.000  P 
  O4511    1.0000 0.73484  0.21838  0.39582  Biso   1.000  O 
  O4512    1.0000 0.64463  0.21838  0.43713  Biso   1.000  O 
  Ca1736   1.0000 0.74929  0.21838  0.42078  Biso   1.000  Ca
  P1040    1.0000 0.70404  0.21838  0.42397  Biso   1.000  P 
  O4513    1.0000 0.69200  0.21838  0.40876  Biso   1.000  O 
  O4514    1.0000 0.68949  0.21838  0.43784  Biso   1.000  O 
  Ca1737   1.0000 0.65599  0.21838  0.40568  Biso   1.000  Ca
  P1041    1.0000 0.54995  0.21838  0.42886  Biso   1.000  P 
  O4515    1.0000 0.57350  0.21838  0.42864  Biso   1.000  O 
  O4516    1.0000 0.54122  0.21838  0.41246  Biso   1.000  O 
  Ca1738   1.0000 0.53018  0.15589  0.43346  Biso   1.000  Ca
  P1042    1.0000 0.50386  0.15589  0.40561  Biso   1.000  P 
  O4517    1.0000 0.64039  0.15589  0.44439  Biso   1.000  O 
  O4518    1.0000 0.73060  0.15589  0.40309  Biso   1.000  O 
  Ca1739   1.0000 0.62593  0.15589  0.41943  Biso   1.000  Ca
  P1043    1.0000 0.67119  0.15589  0.41624  Biso   1.000  P 
  O4519    1.0000 0.68322  0.15589  0.43146  Biso   1.000  O 
  O4520    1.0000 0.68573  0.15589  0.40237  Biso   1.000  O 
  Ca1740   1.0000 0.71922  0.15589  0.43454  Biso   1.000  Ca
  P1044    1.0000 0.57528  0.15589  0.41135  Biso   1.000  P 
  O4521    1.0000 0.55172  0.15589  0.41157  Biso   1.000  O 
  O4522    1.0000 0.58400  0.15589  0.42775  Biso   1.000  O 
  O4523    1.0000 0.62511  0.14938  0.39300  Biso   1.000  O 
  O4524    1.0000 0.62511  0.21187  0.39300  Biso   1.000  O 
  H347     1.0000 0.62511  0.12920  0.39300  Biso   1.000  H 
  H348     1.0000 0.62522  0.19169  0.39295  Biso   1.000  H 
  O4525    1.0000 0.73942  0.24085  0.47982  Biso   1.000  O 
  O4526    1.0000 0.59286  0.24085  0.47817  Biso   1.000  O 
  O4527    1.0000 0.66805  0.24085  0.49208  Biso   1.000  O 
  O4528    1.0000 0.63580  0.17835  0.46882  Biso   1.000  O 
  O4529    1.0000 0.53236  0.17835  0.47047  Biso   1.000  O 
  O4530    1.0000 0.70717  0.17835  0.45657  Biso   1.000  O 
  O4531    1.0000 0.63580  0.13342  0.46882  Biso   1.000  O 
  O4532    1.0000 0.53236  0.13342  0.47047  Biso   1.000  O 
  O4533    1.0000 0.70717  0.13342  0.45657  Biso   1.000  O 
  O4534    1.0000 0.73942  0.19593  0.47982  Biso   1.000  O 
  O4535    1.0000 0.59286  0.19593  0.47817  Biso   1.000  O 
  O4536    1.0000 0.66805  0.19593  0.49208  Biso   1.000  O 
  Ca1741   1.0000 0.66678  0.24945  0.44721  Biso   1.000  Ca
  Ca1742   1.0000 0.58344  0.18696  0.44722  Biso   1.000  Ca
  Ca1743   1.0000 0.58344  0.24982  0.44722  Biso   1.000  Ca
  Ca1744   1.0000 0.66678  0.18731  0.44721  Biso   1.000  Ca
  Ca1745   1.0000 0.72006  0.21838  0.46097  Biso   1.000  Ca
  P1045    1.0000 0.74636  0.21838  0.48881  Biso   1.000  P 
  O4537    1.0000 0.60984  0.21838  0.45004  Biso   1.000  O 
  O4538    1.0000 0.51963  0.21838  0.49134  Biso   1.000  O 
  Ca1746   1.0000 0.62429  0.21838  0.47500  Biso   1.000  Ca
  P1046    1.0000 0.57904  0.21838  0.47819  Biso   1.000  P 
  O4539    1.0000 0.56700  0.21838  0.46298  Biso   1.000  O 
  O4540    1.0000 0.56449  0.21838  0.49206  Biso   1.000  O 
  Ca1747   1.0000 0.53099  0.21838  0.45990  Biso   1.000  Ca
  P1047    1.0000 0.67495  0.21838  0.48308  Biso   1.000  P 
  O4541    1.0000 0.69850  0.21838  0.48285  Biso   1.000  O 
  O4542    1.0000 0.66622  0.21838  0.46667  Biso   1.000  O 
  Ca1748   1.0000 0.65518  0.15589  0.48768  Biso   1.000  Ca
  P1048    1.0000 0.62886  0.15589  0.45983  Biso   1.000  P 
  O4543    1.0000 0.51539  0.15589  0.49861  Biso   1.000  O 
  O4544    1.0000 0.60560  0.15589  0.45731  Biso   1.000  O 
  Ca1749   1.0000 0.50093  0.15589  0.47365  Biso   1.000  Ca
  P1049    1.0000 0.54619  0.15589  0.47046  Biso   1.000  P 
  O4545    1.0000 0.55822  0.15589  0.48568  Biso   1.000  O 
  O4546    1.0000 0.56073  0.15589  0.45658  Biso   1.000  O 
  Ca1750   1.0000 0.59422  0.15589  0.48875  Biso   1.000  Ca
  P1050    1.0000 0.70028  0.15589  0.46557  Biso   1.000  P 
  O4547    1.0000 0.67672  0.15589  0.46579  Biso   1.000  O 
  O4548    1.0000 0.70900  0.15589  0.48197  Biso   1.000  O 
  O4549    1.0000 0.50011  0.14938  0.44722  Biso   1.000  O 
  O4550    1.0000 0.50011  0.21187  0.44722  Biso   1.000  O 
  H349     1.0000 0.50011  0.12920  0.44722  Biso   1.000  H 
  H350     1.0000 0.50022  0.19169  0.44717  Biso   1.000  H 
  O4551    1.0000 0.61442  0.24085  0.53404  Biso   1.000  O 
  O4552    1.0000 0.71786  0.24085  0.53239  Biso   1.000  O 
  O4553    1.0000 0.54305  0.24085  0.54629  Biso   1.000  O 
  O4554    1.0000 0.51080  0.17835  0.52304  Biso   1.000  O 
  O4555    1.0000 0.65736  0.17835  0.52469  Biso   1.000  O 
  O4556    1.0000 0.58217  0.17835  0.51079  Biso   1.000  O 
  O4557    1.0000 0.51080  0.13342  0.52304  Biso   1.000  O 
  O4558    1.0000 0.65736  0.13342  0.52469  Biso   1.000  O 
  O4559    1.0000 0.58217  0.13342  0.51079  Biso   1.000  O 
  O4560    1.0000 0.61442  0.19593  0.53404  Biso   1.000  O 
  O4561    1.0000 0.71786  0.19593  0.53239  Biso   1.000  O 
  O4562    1.0000 0.54305  0.19593  0.54629  Biso   1.000  O 
  Ca1751   1.0000 0.54178  0.24945  0.50143  Biso   1.000  Ca
  Ca1752   1.0000 0.70844  0.18696  0.50144  Biso   1.000  Ca
  Ca1753   1.0000 0.70844  0.24982  0.50144  Biso   1.000  Ca
  Ca1754   1.0000 0.54178  0.18731  0.50143  Biso   1.000  Ca
  Ca1755   1.0000 0.59506  0.21838  0.51519  Biso   1.000  Ca
  P1051    1.0000 0.62136  0.21838  0.54303  Biso   1.000  P 
  O4563    1.0000 0.73484  0.21838  0.50426  Biso   1.000  O 
  O4564    1.0000 0.64463  0.21838  0.54556  Biso   1.000  O 
  Ca1756   1.0000 0.74929  0.21838  0.52922  Biso   1.000  Ca
  P1052    1.0000 0.70404  0.21838  0.53241  Biso   1.000  P 
  O4565    1.0000 0.69200  0.21838  0.51720  Biso   1.000  O 
  O4566    1.0000 0.68949  0.21838  0.54628  Biso   1.000  O 
  Ca1757   1.0000 0.65599  0.21838  0.51412  Biso   1.000  Ca
  P1053    1.0000 0.54995  0.21838  0.53729  Biso   1.000  P 
  O4567    1.0000 0.57350  0.21838  0.53707  Biso   1.000  O 
  O4568    1.0000 0.54122  0.21838  0.52089  Biso   1.000  O 
  Ca1758   1.0000 0.53018  0.15589  0.54190  Biso   1.000  Ca
  P1054    1.0000 0.50386  0.15589  0.51405  Biso   1.000  P 
  O4569    1.0000 0.64039  0.15589  0.55283  Biso   1.000  O 
  O4570    1.0000 0.73060  0.15589  0.51152  Biso   1.000  O 
  Ca1759   1.0000 0.62593  0.15589  0.52786  Biso   1.000  Ca
  P1055    1.0000 0.67119  0.15589  0.52468  Biso   1.000  P 
  O4571    1.0000 0.68322  0.15589  0.53989  Biso   1.000  O 
  O4572    1.0000 0.68573  0.15589  0.51080  Biso   1.000  O 
  Ca1760   1.0000 0.71922  0.15589  0.54297  Biso   1.000  Ca
  P1056    1.0000 0.57528  0.15589  0.51979  Biso   1.000  P 
  O4573    1.0000 0.55172  0.15589  0.52001  Biso   1.000  O 
  O4574    1.0000 0.58400  0.15589  0.53619  Biso   1.000  O 
  O4575    1.0000 0.62511  0.14938  0.50143  Biso   1.000  O 
  O4576    1.0000 0.62511  0.21187  0.50143  Biso   1.000  O 
  H351     1.0000 0.62511  0.12920  0.50143  Biso   1.000  H 
  H352     1.0000 0.62522  0.19169  0.50139  Biso   1.000  H 
  O4577    1.0000 0.73942  0.24085  0.58826  Biso   1.000  O 
  O4578    1.0000 0.59286  0.24085  0.58661  Biso   1.000  O 
  O4579    1.0000 0.66805  0.24085  0.60051  Biso   1.000  O 
  O4580    1.0000 0.63580  0.17835  0.57726  Biso   1.000  O 
  O4581    1.0000 0.53236  0.17835  0.57891  Biso   1.000  O 
  O4582    1.0000 0.70717  0.17835  0.56500  Biso   1.000  O 
  O4583    1.0000 0.63580  0.13342  0.57726  Biso   1.000  O 
  O4584    1.0000 0.53236  0.13342  0.57891  Biso   1.000  O 
  O4585    1.0000 0.70717  0.13342  0.56500  Biso   1.000  O 
  O4586    1.0000 0.73942  0.19593  0.58826  Biso   1.000  O 
  O4587    1.0000 0.59286  0.19593  0.58661  Biso   1.000  O 
  O4588    1.0000 0.66805  0.19593  0.60051  Biso   1.000  O 
  Ca1761   1.0000 0.66678  0.24945  0.55565  Biso   1.000  Ca
  Ca1762   1.0000 0.58344  0.18696  0.55565  Biso   1.000  Ca
  Ca1763   1.0000 0.58344  0.24982  0.55565  Biso   1.000  Ca
  Ca1764   1.0000 0.66678  0.18731  0.55565  Biso   1.000  Ca
  Ca1765   1.0000 0.72006  0.21838  0.56941  Biso   1.000  Ca
  P1057    1.0000 0.74636  0.21838  0.59725  Biso   1.000  P 
  O4589    1.0000 0.60984  0.21838  0.55847  Biso   1.000  O 
  O4590    1.0000 0.51963  0.21838  0.59978  Biso   1.000  O 
  Ca1766   1.0000 0.62429  0.21838  0.58343  Biso   1.000  Ca
  P1058    1.0000 0.57904  0.21838  0.58662  Biso   1.000  P 
  O4591    1.0000 0.56700  0.21838  0.57141  Biso   1.000  O 
  O4592    1.0000 0.56449  0.21838  0.60050  Biso   1.000  O 
  Ca1767   1.0000 0.53099  0.21838  0.56834  Biso   1.000  Ca
  P1059    1.0000 0.67495  0.21838  0.59151  Biso   1.000  P 
  O4593    1.0000 0.69850  0.21838  0.59129  Biso   1.000  O 
  O4594    1.0000 0.66622  0.21838  0.57511  Biso   1.000  O 
  Ca1768   1.0000 0.65518  0.15589  0.59611  Biso   1.000  Ca
  P1060    1.0000 0.62886  0.15589  0.56827  Biso   1.000  P 
  O4595    1.0000 0.51539  0.15589  0.60705  Biso   1.000  O 
  O4596    1.0000 0.60560  0.15589  0.56574  Biso   1.000  O 
  Ca1769   1.0000 0.50093  0.15589  0.58208  Biso   1.000  Ca
  P1061    1.0000 0.54619  0.15589  0.57890  Biso   1.000  P 
  O4597    1.0000 0.55822  0.15589  0.59411  Biso   1.000  O 
  O4598    1.0000 0.56073  0.15589  0.56502  Biso   1.000  O 
  Ca1770   1.0000 0.59422  0.15589  0.59719  Biso   1.000  Ca
  P1062    1.0000 0.70028  0.15589  0.57400  Biso   1.000  P 
  O4599    1.0000 0.67672  0.15589  0.57423  Biso   1.000  O 
  O4600    1.0000 0.70900  0.15589  0.59041  Biso   1.000  O 
  O4601    1.0000 0.50011  0.14938  0.55565  Biso   1.000  O 
  O4602    1.0000 0.50011  0.21187  0.55565  Biso   1.000  O 
  H353     1.0000 0.50011  0.12920  0.55565  Biso   1.000  H 
  H354     1.0000 0.50022  0.19169  0.55561  Biso   1.000  H 
  O4603    1.0000 0.61442  0.24085  0.64248  Biso   1.000  O 
  O4604    1.0000 0.71786  0.24085  0.64083  Biso   1.000  O 
  O4605    1.0000 0.54305  0.24085  0.65473  Biso   1.000  O 
  O4606    1.0000 0.51080  0.17835  0.63147  Biso   1.000  O 
  O4607    1.0000 0.65736  0.17835  0.63313  Biso   1.000  O 
  O4608    1.0000 0.58217  0.17835  0.61922  Biso   1.000  O 
  O4609    1.0000 0.51080  0.13342  0.63147  Biso   1.000  O 
  O4610    1.0000 0.65736  0.13342  0.63313  Biso   1.000  O 
  O4611    1.0000 0.58217  0.13342  0.61922  Biso   1.000  O 
  O4612    1.0000 0.61442  0.19593  0.64248  Biso   1.000  O 
  O4613    1.0000 0.71786  0.19593  0.64083  Biso   1.000  O 
  O4614    1.0000 0.54305  0.19593  0.65473  Biso   1.000  O 
  Ca1771   1.0000 0.54178  0.24945  0.60986  Biso   1.000  Ca
  Ca1772   1.0000 0.70844  0.18696  0.60987  Biso   1.000  Ca
  Ca1773   1.0000 0.70844  0.24982  0.60987  Biso   1.000  Ca
  Ca1774   1.0000 0.54178  0.18731  0.60986  Biso   1.000  Ca
  Ca1775   1.0000 0.59506  0.21838  0.62363  Biso   1.000  Ca
  P1063    1.0000 0.62136  0.21838  0.65147  Biso   1.000  P 
  O4615    1.0000 0.73484  0.21838  0.61269  Biso   1.000  O 
  O4616    1.0000 0.64463  0.21838  0.65400  Biso   1.000  O 
  Ca1776   1.0000 0.74929  0.21838  0.63765  Biso   1.000  Ca
  P1064    1.0000 0.70404  0.21838  0.64084  Biso   1.000  P 
  O4617    1.0000 0.69200  0.21838  0.62563  Biso   1.000  O 
  O4618    1.0000 0.68949  0.21838  0.65471  Biso   1.000  O 
  Ca1777   1.0000 0.65599  0.21838  0.62255  Biso   1.000  Ca
  P1065    1.0000 0.54995  0.21838  0.64573  Biso   1.000  P 
  O4619    1.0000 0.57350  0.21838  0.64551  Biso   1.000  O 
  O4620    1.0000 0.54122  0.21838  0.62933  Biso   1.000  O 
  Ca1778   1.0000 0.53018  0.15589  0.65033  Biso   1.000  Ca
  P1066    1.0000 0.50386  0.15589  0.62248  Biso   1.000  P 
  O4621    1.0000 0.64039  0.15589  0.66127  Biso   1.000  O 
  O4622    1.0000 0.73060  0.15589  0.61996  Biso   1.000  O 
  Ca1779   1.0000 0.62593  0.15589  0.63630  Biso   1.000  Ca
  P1067    1.0000 0.67119  0.15589  0.63312  Biso   1.000  P 
  O4623    1.0000 0.68322  0.15589  0.64833  Biso   1.000  O 
  O4624    1.0000 0.68573  0.15589  0.61924  Biso   1.000  O 
  Ca1780   1.0000 0.71922  0.15589  0.65141  Biso   1.000  Ca
  P1068    1.0000 0.57528  0.15589  0.62822  Biso   1.000  P 
  O4625    1.0000 0.55172  0.15589  0.62845  Biso   1.000  O 
  O4626    1.0000 0.58400  0.15589  0.64462  Biso   1.000  O 
  O4627    1.0000 0.62511  0.14938  0.60987  Biso   1.000  O 
  O4628    1.0000 0.62511  0.21187  0.60987  Biso   1.000  O 
  H355     1.0000 0.62511  0.12920  0.60987  Biso   1.000  H 
  H356     1.0000 0.62522  0.19169  0.60982  Biso   1.000  H 
  O4629    1.0000 0.73942  0.24085  0.69670  Biso   1.000  O 
  O4630    1.0000 0.59286  0.24085  0.69504  Biso   1.000  O 
  O4631    1.0000 0.66805  0.24085  0.70895  Biso   1.000  O 
  O4632    1.0000 0.63580  0.17835  0.68569  Biso   1.000  O 
  O4633    1.0000 0.53236  0.17835  0.68734  Biso   1.000  O 
  O4634    1.0000 0.70717  0.17835  0.67344  Biso   1.000  O 
  O4635    1.0000 0.63580  0.13342  0.68569  Biso   1.000  O 
  O4636    1.0000 0.53236  0.13342  0.68734  Biso   1.000  O 
  O4637    1.0000 0.70717  0.13342  0.67344  Biso   1.000  O 
  O4638    1.0000 0.73942  0.19593  0.69670  Biso   1.000  O 
  O4639    1.0000 0.59286  0.19593  0.69504  Biso   1.000  O 
  O4640    1.0000 0.66805  0.19593  0.70895  Biso   1.000  O 
  Ca1781   1.0000 0.66678  0.24945  0.66408  Biso   1.000  Ca
  Ca1782   1.0000 0.58344  0.18696  0.66409  Biso   1.000  Ca
  Ca1783   1.0000 0.58344  0.24982  0.66409  Biso   1.000  Ca
  Ca1784   1.0000 0.66678  0.18731  0.66408  Biso   1.000  Ca
  Ca1785   1.0000 0.72006  0.21838  0.67784  Biso   1.000  Ca
  P1069    1.0000 0.74636  0.21838  0.70569  Biso   1.000  P 
  O4641    1.0000 0.60984  0.21838  0.66691  Biso   1.000  O 
  O4642    1.0000 0.51963  0.21838  0.70822  Biso   1.000  O 
  Ca1786   1.0000 0.62429  0.21838  0.69187  Biso   1.000  Ca
  P1070    1.0000 0.57904  0.21838  0.69506  Biso   1.000  P 
  O4643    1.0000 0.56700  0.21838  0.67985  Biso   1.000  O 
  O4644    1.0000 0.56449  0.21838  0.70893  Biso   1.000  O 
  Ca1787   1.0000 0.53099  0.21838  0.67677  Biso   1.000  Ca
  P1071    1.0000 0.67495  0.21838  0.69995  Biso   1.000  P 
  O4645    1.0000 0.69850  0.21838  0.69973  Biso   1.000  O 
  O4646    1.0000 0.66622  0.21838  0.68355  Biso   1.000  O 
  Ca1788   1.0000 0.65518  0.15589  0.70455  Biso   1.000  Ca
  P1072    1.0000 0.62886  0.15589  0.67670  Biso   1.000  P 
  O4647    1.0000 0.51539  0.15589  0.71548  Biso   1.000  O 
  O4648    1.0000 0.60560  0.15589  0.67418  Biso   1.000  O 
  Ca1789   1.0000 0.50093  0.15589  0.69052  Biso   1.000  Ca
  P1073    1.0000 0.54619  0.15589  0.68733  Biso   1.000  P 
  O4649    1.0000 0.55822  0.15589  0.70255  Biso   1.000  O 
  O4650    1.0000 0.56073  0.15589  0.67346  Biso   1.000  O 
  Ca1790   1.0000 0.59422  0.15589  0.70563  Biso   1.000  Ca
  P1074    1.0000 0.70028  0.15589  0.68244  Biso   1.000  P 
  O4651    1.0000 0.67672  0.15589  0.68266  Biso   1.000  O 
  O4652    1.0000 0.70900  0.15589  0.69884  Biso   1.000  O 
  O4653    1.0000 0.50011  0.14938  0.66409  Biso   1.000  O 
  O4654    1.0000 0.50011  0.21187  0.66409  Biso   1.000  O 
  H357     1.0000 0.50011  0.12920  0.66409  Biso   1.000  H 
  H358     1.0000 0.50022  0.19169  0.66404  Biso   1.000  H 
  O4655    1.0000 0.61442  0.24085  0.75091  Biso   1.000  O 
  O4656    1.0000 0.71786  0.24085  0.74926  Biso   1.000  O 
  O4657    1.0000 0.54305  0.24085  0.76317  Biso   1.000  O 
  O4658    1.0000 0.51080  0.17835  0.73991  Biso   1.000  O 
  O4659    1.0000 0.65736  0.17835  0.74156  Biso   1.000  O 
  O4660    1.0000 0.58217  0.17835  0.72766  Biso   1.000  O 
  O4661    1.0000 0.51080  0.13342  0.73991  Biso   1.000  O 
  O4662    1.0000 0.65736  0.13342  0.74156  Biso   1.000  O 
  O4663    1.0000 0.58217  0.13342  0.72766  Biso   1.000  O 
  O4664    1.0000 0.61442  0.19593  0.75091  Biso   1.000  O 
  O4665    1.0000 0.71786  0.19593  0.74926  Biso   1.000  O 
  O4666    1.0000 0.54305  0.19593  0.76317  Biso   1.000  O 
  Ca1791   1.0000 0.54178  0.24945  0.71830  Biso   1.000  Ca
  Ca1792   1.0000 0.70844  0.18696  0.71831  Biso   1.000  Ca
  Ca1793   1.0000 0.70844  0.24982  0.71831  Biso   1.000  Ca
  Ca1794   1.0000 0.54178  0.18731  0.71830  Biso   1.000  Ca
  Ca1795   1.0000 0.59506  0.21838  0.73206  Biso   1.000  Ca
  P1075    1.0000 0.62136  0.21838  0.75990  Biso   1.000  P 
  O4667    1.0000 0.73484  0.21838  0.72113  Biso   1.000  O 
  O4668    1.0000 0.64463  0.21838  0.76243  Biso   1.000  O 
  Ca1796   1.0000 0.74929  0.21838  0.74609  Biso   1.000  Ca
  P1076    1.0000 0.70404  0.21838  0.74928  Biso   1.000  P 
  O4669    1.0000 0.69200  0.21838  0.73407  Biso   1.000  O 
  O4670    1.0000 0.68949  0.21838  0.76315  Biso   1.000  O 
  Ca1797   1.0000 0.65599  0.21838  0.73099  Biso   1.000  Ca
  P1077    1.0000 0.54995  0.21838  0.75417  Biso   1.000  P 
  O4671    1.0000 0.57350  0.21838  0.75394  Biso   1.000  O 
  O4672    1.0000 0.54122  0.21838  0.73776  Biso   1.000  O 
  Ca1798   1.0000 0.53018  0.15589  0.75877  Biso   1.000  Ca
  P1078    1.0000 0.50386  0.15589  0.73092  Biso   1.000  P 
  O4673    1.0000 0.64039  0.15589  0.76970  Biso   1.000  O 
  O4674    1.0000 0.73060  0.15589  0.72840  Biso   1.000  O 
  Ca1799   1.0000 0.62593  0.15589  0.74474  Biso   1.000  Ca
  P1079    1.0000 0.67119  0.15589  0.74155  Biso   1.000  P 
  O4675    1.0000 0.68322  0.15589  0.75677  Biso   1.000  O 
  O4676    1.0000 0.68573  0.15589  0.72767  Biso   1.000  O 
  Ca1800   1.0000 0.71922  0.15589  0.75984  Biso   1.000  Ca
  P1080    1.0000 0.57528  0.15589  0.73666  Biso   1.000  P 
  O4677    1.0000 0.55172  0.15589  0.73688  Biso   1.000  O 
  O4678    1.0000 0.58400  0.15589  0.75306  Biso   1.000  O 
  O4679    1.0000 0.62511  0.14938  0.71831  Biso   1.000  O 
  O4680    1.0000 0.62511  0.21187  0.71831  Biso   1.000  O 
  H359     1.0000 0.62511  0.12920  0.71831  Biso   1.000  H 
  H360     1.0000 0.62522  0.19169  0.71826  Biso   1.000  H 
  O4681    1.0000 0.73942  0.36585  0.26295  Biso   1.000  O 
  O4682    1.0000 0.59286  0.36585  0.26130  Biso   1.000  O 
  O4683    1.0000 0.66805  0.36585  0.27520  Biso   1.000  O 
  O4684    1.0000 0.63580  0.30335  0.25195  Biso   1.000  O 
  O4685    1.0000 0.53236  0.30335  0.25360  Biso   1.000  O 
  O4686    1.0000 0.70717  0.30335  0.23970  Biso   1.000  O 
  O4687    1.0000 0.63580  0.25842  0.25195  Biso   1.000  O 
  O4688    1.0000 0.53236  0.25842  0.25360  Biso   1.000  O 
  O4689    1.0000 0.70717  0.25842  0.23970  Biso   1.000  O 
  O4690    1.0000 0.73942  0.32093  0.26295  Biso   1.000  O 
  O4691    1.0000 0.59286  0.32093  0.26130  Biso   1.000  O 
  O4692    1.0000 0.66805  0.32093  0.27520  Biso   1.000  O 
  Ca1801   1.0000 0.66678  0.37445  0.23034  Biso   1.000  Ca
  Ca1802   1.0000 0.58344  0.31196  0.23035  Biso   1.000  Ca
  Ca1803   1.0000 0.58344  0.37482  0.23035  Biso   1.000  Ca
  Ca1804   1.0000 0.66678  0.31231  0.23034  Biso   1.000  Ca
  Ca1805   1.0000 0.72006  0.34338  0.24410  Biso   1.000  Ca
  P1081    1.0000 0.74636  0.34338  0.27194  Biso   1.000  P 
  O4693    1.0000 0.60984  0.34338  0.23317  Biso   1.000  O 
  O4694    1.0000 0.51963  0.34338  0.27447  Biso   1.000  O 
  Ca1806   1.0000 0.62429  0.34338  0.25813  Biso   1.000  Ca
  P1082    1.0000 0.57904  0.34338  0.26132  Biso   1.000  P 
  O4695    1.0000 0.56700  0.34338  0.24611  Biso   1.000  O 
  O4696    1.0000 0.56449  0.34338  0.27519  Biso   1.000  O 
  Ca1807   1.0000 0.53099  0.34338  0.24303  Biso   1.000  Ca
  P1083    1.0000 0.67495  0.34338  0.26620  Biso   1.000  P 
  O4697    1.0000 0.69850  0.34338  0.26598  Biso   1.000  O 
  O4698    1.0000 0.66622  0.34338  0.24980  Biso   1.000  O 
  Ca1808   1.0000 0.65518  0.28089  0.27081  Biso   1.000  Ca
  P1084    1.0000 0.62886  0.28089  0.24296  Biso   1.000  P 
  O4699    1.0000 0.51539  0.28089  0.28174  Biso   1.000  O 
  O4700    1.0000 0.60560  0.28089  0.24043  Biso   1.000  O 
  Ca1809   1.0000 0.50093  0.28089  0.25677  Biso   1.000  Ca
  P1085    1.0000 0.54619  0.28089  0.25359  Biso   1.000  P 
  O4701    1.0000 0.55822  0.28089  0.26880  Biso   1.000  O 
  O4702    1.0000 0.56073  0.28089  0.23971  Biso   1.000  O 
  Ca1810   1.0000 0.59422  0.28089  0.27188  Biso   1.000  Ca
  P1086    1.0000 0.70028  0.28089  0.24870  Biso   1.000  P 
  O4703    1.0000 0.67672  0.28089  0.24892  Biso   1.000  O 
  O4704    1.0000 0.70900  0.28089  0.26510  Biso   1.000  O 
  O4705    1.0000 0.50011  0.27438  0.23034  Biso   1.000  O 
  O4706    1.0000 0.50011  0.33687  0.23034  Biso   1.000  O 
  H361     1.0000 0.50011  0.25420  0.23034  Biso   1.000  H 
  H362     1.0000 0.50022  0.31669  0.23030  Biso   1.000  H 
  O4707    1.0000 0.61442  0.36585  0.31717  Biso   1.000  O 
  O4708    1.0000 0.71786  0.36585  0.31552  Biso   1.000  O 
  O4709    1.0000 0.54305  0.36585  0.32942  Biso   1.000  O 
  O4710    1.0000 0.51080  0.30335  0.30617  Biso   1.000  O 
  O4711    1.0000 0.65736  0.30335  0.30782  Biso   1.000  O 
  O4712    1.0000 0.58217  0.30335  0.29391  Biso   1.000  O 
  O4713    1.0000 0.51080  0.25842  0.30617  Biso   1.000  O 
  O4714    1.0000 0.65736  0.25842  0.30782  Biso   1.000  O 
  O4715    1.0000 0.58217  0.25842  0.29391  Biso   1.000  O 
  O4716    1.0000 0.61442  0.32093  0.31717  Biso   1.000  O 
  O4717    1.0000 0.71786  0.32093  0.31552  Biso   1.000  O 
  O4718    1.0000 0.54305  0.32093  0.32942  Biso   1.000  O 
  Ca1811   1.0000 0.54178  0.37445  0.28456  Biso   1.000  Ca
  Ca1812   1.0000 0.70844  0.31196  0.28456  Biso   1.000  Ca
  Ca1813   1.0000 0.70844  0.37482  0.28456  Biso   1.000  Ca
  Ca1814   1.0000 0.54178  0.31231  0.28456  Biso   1.000  Ca
  Ca1815   1.0000 0.59506  0.34338  0.29832  Biso   1.000  Ca
  P1087    1.0000 0.62136  0.34338  0.32616  Biso   1.000  P 
  O4719    1.0000 0.73484  0.34338  0.28738  Biso   1.000  O 
  O4720    1.0000 0.64463  0.34338  0.32869  Biso   1.000  O 
  Ca1816   1.0000 0.74929  0.34338  0.31234  Biso   1.000  Ca
  P1088    1.0000 0.70404  0.34338  0.31554  Biso   1.000  P 
  O4721    1.0000 0.69200  0.34338  0.30033  Biso   1.000  O 
  O4722    1.0000 0.68949  0.34338  0.32941  Biso   1.000  O 
  Ca1817   1.0000 0.65599  0.34338  0.29725  Biso   1.000  Ca
  P1089    1.0000 0.54995  0.34338  0.32042  Biso   1.000  P 
  O4723    1.0000 0.57350  0.34338  0.32020  Biso   1.000  O 
  O4724    1.0000 0.54122  0.34338  0.30402  Biso   1.000  O 
  Ca1818   1.0000 0.53018  0.28089  0.32502  Biso   1.000  Ca
  P1090    1.0000 0.50386  0.28089  0.29718  Biso   1.000  P 
  O4725    1.0000 0.64039  0.28089  0.33596  Biso   1.000  O 
  O4726    1.0000 0.73060  0.28089  0.29465  Biso   1.000  O 
  Ca1819   1.0000 0.62593  0.28089  0.31099  Biso   1.000  Ca
  P1091    1.0000 0.67119  0.28089  0.30781  Biso   1.000  P 
  O4727    1.0000 0.68322  0.28089  0.32302  Biso   1.000  O 
  O4728    1.0000 0.68573  0.28089  0.29393  Biso   1.000  O 
  Ca1820   1.0000 0.71922  0.28089  0.32610  Biso   1.000  Ca
  P1092    1.0000 0.57528  0.28089  0.30291  Biso   1.000  P 
  O4729    1.0000 0.55172  0.28089  0.30314  Biso   1.000  O 
  O4730    1.0000 0.58400  0.28089  0.31932  Biso   1.000  O 
  O4731    1.0000 0.62511  0.27438  0.28456  Biso   1.000  O 
  O4732    1.0000 0.62511  0.33687  0.28456  Biso   1.000  O 
  H363     1.0000 0.62511  0.25420  0.28456  Biso   1.000  H 
  H364     1.0000 0.62522  0.31669  0.28452  Biso   1.000  H 
  O4733    1.0000 0.73942  0.36585  0.37139  Biso   1.000  O 
  O4734    1.0000 0.59286  0.36585  0.36974  Biso   1.000  O 
  O4735    1.0000 0.66805  0.36585  0.38364  Biso   1.000  O 
  O4736    1.0000 0.63580  0.30335  0.36038  Biso   1.000  O 
  O4737    1.0000 0.53236  0.30335  0.36204  Biso   1.000  O 
  O4738    1.0000 0.70717  0.30335  0.34813  Biso   1.000  O 
  O4739    1.0000 0.63580  0.25842  0.36038  Biso   1.000  O 
  O4740    1.0000 0.53236  0.25842  0.36204  Biso   1.000  O 
  O4741    1.0000 0.70717  0.25842  0.34813  Biso   1.000  O 
  O4742    1.0000 0.73942  0.32093  0.37139  Biso   1.000  O 
  O4743    1.0000 0.59286  0.32093  0.36974  Biso   1.000  O 
  O4744    1.0000 0.66805  0.32093  0.38364  Biso   1.000  O 
  Ca1821   1.0000 0.66678  0.37445  0.33877  Biso   1.000  Ca
  Ca1822   1.0000 0.58344  0.31196  0.33878  Biso   1.000  Ca
  Ca1823   1.0000 0.58344  0.37482  0.33878  Biso   1.000  Ca
  Ca1824   1.0000 0.66678  0.31231  0.33877  Biso   1.000  Ca
  Ca1825   1.0000 0.72006  0.34338  0.35254  Biso   1.000  Ca
  P1093    1.0000 0.74636  0.34338  0.38038  Biso   1.000  P 
  O4745    1.0000 0.60984  0.34338  0.34160  Biso   1.000  O 
  O4746    1.0000 0.51963  0.34338  0.38291  Biso   1.000  O 
  Ca1826   1.0000 0.62429  0.34338  0.36656  Biso   1.000  Ca
  P1094    1.0000 0.57904  0.34338  0.36975  Biso   1.000  P 
  O4747    1.0000 0.56700  0.34338  0.35454  Biso   1.000  O 
  O4748    1.0000 0.56449  0.34338  0.38362  Biso   1.000  O 
  Ca1827   1.0000 0.53099  0.34338  0.35146  Biso   1.000  Ca
  P1095    1.0000 0.67495  0.34338  0.37464  Biso   1.000  P 
  O4749    1.0000 0.69850  0.34338  0.37442  Biso   1.000  O 
  O4750    1.0000 0.66622  0.34338  0.35824  Biso   1.000  O 
  Ca1828   1.0000 0.65518  0.28089  0.37924  Biso   1.000  Ca
  P1096    1.0000 0.62886  0.28089  0.35140  Biso   1.000  P 
  O4751    1.0000 0.51539  0.28089  0.39018  Biso   1.000  O 
  O4752    1.0000 0.60560  0.28089  0.34887  Biso   1.000  O 
  Ca1829   1.0000 0.50093  0.28089  0.36521  Biso   1.000  Ca
  P1097    1.0000 0.54619  0.28089  0.36203  Biso   1.000  P 
  O4753    1.0000 0.55822  0.28089  0.37724  Biso   1.000  O 
  O4754    1.0000 0.56073  0.28089  0.34815  Biso   1.000  O 
  Ca1830   1.0000 0.59422  0.28089  0.38032  Biso   1.000  Ca
  P1098    1.0000 0.70028  0.28089  0.35713  Biso   1.000  P 
  O4755    1.0000 0.67672  0.28089  0.35736  Biso   1.000  O 
  O4756    1.0000 0.70900  0.28089  0.37353  Biso   1.000  O 
  O4757    1.0000 0.50011  0.27438  0.33878  Biso   1.000  O 
  O4758    1.0000 0.50011  0.33687  0.33878  Biso   1.000  O 
  H365     1.0000 0.50011  0.25420  0.33878  Biso   1.000  H 
  H366     1.0000 0.50022  0.31669  0.33873  Biso   1.000  H 
  O4759    1.0000 0.61442  0.36585  0.42561  Biso   1.000  O 
  O4760    1.0000 0.71786  0.36585  0.42395  Biso   1.000  O 
  O4761    1.0000 0.54305  0.36585  0.43786  Biso   1.000  O 
  O4762    1.0000 0.51080  0.30335  0.41460  Biso   1.000  O 
  O4763    1.0000 0.65736  0.30335  0.41625  Biso   1.000  O 
  O4764    1.0000 0.58217  0.30335  0.40235  Biso   1.000  O 
  O4765    1.0000 0.51080  0.25842  0.41460  Biso   1.000  O 
  O4766    1.0000 0.65736  0.25842  0.41625  Biso   1.000  O 
  O4767    1.0000 0.58217  0.25842  0.40235  Biso   1.000  O 
  O4768    1.0000 0.61442  0.32093  0.42561  Biso   1.000  O 
  O4769    1.0000 0.71786  0.32093  0.42395  Biso   1.000  O 
  O4770    1.0000 0.54305  0.32093  0.43786  Biso   1.000  O 
  Ca1831   1.0000 0.54178  0.37445  0.39299  Biso   1.000  Ca
  Ca1832   1.0000 0.70844  0.31196  0.39300  Biso   1.000  Ca
  Ca1833   1.0000 0.70844  0.37482  0.39300  Biso   1.000  Ca
  Ca1834   1.0000 0.54178  0.31231  0.39299  Biso   1.000  Ca
  Ca1835   1.0000 0.59506  0.34338  0.40675  Biso   1.000  Ca
  P1099    1.0000 0.62136  0.34338  0.43460  Biso   1.000  P 
  O4771    1.0000 0.73484  0.34338  0.39582  Biso   1.000  O 
  O4772    1.0000 0.64463  0.34338  0.43713  Biso   1.000  O 
  Ca1836   1.0000 0.74929  0.34338  0.42078  Biso   1.000  Ca
  P1100    1.0000 0.70404  0.34338  0.42397  Biso   1.000  P 
  O4773    1.0000 0.69200  0.34338  0.40876  Biso   1.000  O 
  O4774    1.0000 0.68949  0.34338  0.43784  Biso   1.000  O 
  Ca1837   1.0000 0.65599  0.34338  0.40568  Biso   1.000  Ca
  P1101    1.0000 0.54995  0.34338  0.42886  Biso   1.000  P 
  O4775    1.0000 0.57350  0.34338  0.42864  Biso   1.000  O 
  O4776    1.0000 0.54122  0.34338  0.41246  Biso   1.000  O 
  Ca1838   1.0000 0.53018  0.28089  0.43346  Biso   1.000  Ca
  P1102    1.0000 0.50386  0.28089  0.40561  Biso   1.000  P 
  O4777    1.0000 0.64039  0.28089  0.44439  Biso   1.000  O 
  O4778    1.0000 0.73060  0.28089  0.40309  Biso   1.000  O 
  Ca1839   1.0000 0.62593  0.28089  0.41943  Biso   1.000  Ca
  P1103    1.0000 0.67119  0.28089  0.41624  Biso   1.000  P 
  O4779    1.0000 0.68322  0.28089  0.43146  Biso   1.000  O 
  O4780    1.0000 0.68573  0.28089  0.40237  Biso   1.000  O 
  Ca1840   1.0000 0.71922  0.28089  0.43454  Biso   1.000  Ca
  P1104    1.0000 0.57528  0.28089  0.41135  Biso   1.000  P 
  O4781    1.0000 0.55172  0.28089  0.41157  Biso   1.000  O 
  O4782    1.0000 0.58400  0.28089  0.42775  Biso   1.000  O 
  O4783    1.0000 0.62511  0.27438  0.39300  Biso   1.000  O 
  O4784    1.0000 0.62511  0.33687  0.39300  Biso   1.000  O 
  H367     1.0000 0.62511  0.25420  0.39300  Biso   1.000  H 
  H368     1.0000 0.62522  0.31669  0.39295  Biso   1.000  H 
  O4785    1.0000 0.73942  0.36585  0.47982  Biso   1.000  O 
  O4786    1.0000 0.59286  0.36585  0.47817  Biso   1.000  O 
  O4787    1.0000 0.66805  0.36585  0.49208  Biso   1.000  O 
  O4788    1.0000 0.63580  0.30335  0.46882  Biso   1.000  O 
  O4789    1.0000 0.53236  0.30335  0.47047  Biso   1.000  O 
  O4790    1.0000 0.70717  0.30335  0.45657  Biso   1.000  O 
  O4791    1.0000 0.63580  0.25842  0.46882  Biso   1.000  O 
  O4792    1.0000 0.53236  0.25842  0.47047  Biso   1.000  O 
  O4793    1.0000 0.70717  0.25842  0.45657  Biso   1.000  O 
  O4794    1.0000 0.73942  0.32093  0.47982  Biso   1.000  O 
  O4795    1.0000 0.59286  0.32093  0.47817  Biso   1.000  O 
  O4796    1.0000 0.66805  0.32093  0.49208  Biso   1.000  O 
  Ca1841   1.0000 0.66678  0.37445  0.44721  Biso   1.000  Ca
  Ca1842   1.0000 0.58344  0.31196  0.44722  Biso   1.000  Ca
  Ca1843   1.0000 0.58344  0.37482  0.44722  Biso   1.000  Ca
  Ca1844   1.0000 0.66678  0.31231  0.44721  Biso   1.000  Ca
  Ca1845   1.0000 0.72006  0.34338  0.46097  Biso   1.000  Ca
  P1105    1.0000 0.74636  0.34338  0.48881  Biso   1.000  P 
  O4797    1.0000 0.60984  0.34338  0.45004  Biso   1.000  O 
  O4798    1.0000 0.51963  0.34338  0.49134  Biso   1.000  O 
  Ca1846   1.0000 0.62429  0.34338  0.47500  Biso   1.000  Ca
  P1106    1.0000 0.57904  0.34338  0.47819  Biso   1.000  P 
  O4799    1.0000 0.56700  0.34338  0.46298  Biso   1.000  O 
  O4800    1.0000 0.56449  0.34338  0.49206  Biso   1.000  O 
  Ca1847   1.0000 0.53099  0.34338  0.45990  Biso   1.000  Ca
  P1107    1.0000 0.67495  0.34338  0.48308  Biso   1.000  P 
  O4801    1.0000 0.69850  0.34338  0.48285  Biso   1.000  O 
  O4802    1.0000 0.66622  0.34338  0.46667  Biso   1.000  O 
  Ca1848   1.0000 0.65518  0.28089  0.48768  Biso   1.000  Ca
  P1108    1.0000 0.62886  0.28089  0.45983  Biso   1.000  P 
  O4803    1.0000 0.51539  0.28089  0.49861  Biso   1.000  O 
  O4804    1.0000 0.60560  0.28089  0.45731  Biso   1.000  O 
  Ca1849   1.0000 0.50093  0.28089  0.47365  Biso   1.000  Ca
  P1109    1.0000 0.54619  0.28089  0.47046  Biso   1.000  P 
  O4805    1.0000 0.55822  0.28089  0.48568  Biso   1.000  O 
  O4806    1.0000 0.56073  0.28089  0.45658  Biso   1.000  O 
  Ca1850   1.0000 0.59422  0.28089  0.48875  Biso   1.000  Ca
  P1110    1.0000 0.70028  0.28089  0.46557  Biso   1.000  P 
  O4807    1.0000 0.67672  0.28089  0.46579  Biso   1.000  O 
  O4808    1.0000 0.70900  0.28089  0.48197  Biso   1.000  O 
  O4809    1.0000 0.50011  0.27438  0.44722  Biso   1.000  O 
  O4810    1.0000 0.50011  0.33687  0.44722  Biso   1.000  O 
  H369     1.0000 0.50011  0.25420  0.44722  Biso   1.000  H 
  H370     1.0000 0.50022  0.31669  0.44717  Biso   1.000  H 
  O4811    1.0000 0.61442  0.36585  0.53404  Biso   1.000  O 
  O4812    1.0000 0.71786  0.36585  0.53239  Biso   1.000  O 
  O4813    1.0000 0.54305  0.36585  0.54629  Biso   1.000  O 
  O4814    1.0000 0.51080  0.30335  0.52304  Biso   1.000  O 
  O4815    1.0000 0.65736  0.30335  0.52469  Biso   1.000  O 
  O4816    1.0000 0.58217  0.30335  0.51079  Biso   1.000  O 
  O4817    1.0000 0.51080  0.25842  0.52304  Biso   1.000  O 
  O4818    1.0000 0.65736  0.25842  0.52469  Biso   1.000  O 
  O4819    1.0000 0.58217  0.25842  0.51079  Biso   1.000  O 
  O4820    1.0000 0.61442  0.32093  0.53404  Biso   1.000  O 
  O4821    1.0000 0.71786  0.32093  0.53239  Biso   1.000  O 
  O4822    1.0000 0.54305  0.32093  0.54629  Biso   1.000  O 
  Ca1851   1.0000 0.54178  0.37445  0.50143  Biso   1.000  Ca
  Ca1852   1.0000 0.70844  0.31196  0.50144  Biso   1.000  Ca
  Ca1853   1.0000 0.70844  0.37482  0.50144  Biso   1.000  Ca
  Ca1854   1.0000 0.54178  0.31231  0.50143  Biso   1.000  Ca
  Ca1855   1.0000 0.59506  0.34338  0.51519  Biso   1.000  Ca
  P1111    1.0000 0.62136  0.34338  0.54303  Biso   1.000  P 
  O4823    1.0000 0.73484  0.34338  0.50426  Biso   1.000  O 
  O4824    1.0000 0.64463  0.34338  0.54556  Biso   1.000  O 
  Ca1856   1.0000 0.74929  0.34338  0.52922  Biso   1.000  Ca
  P1112    1.0000 0.70404  0.34338  0.53241  Biso   1.000  P 
  O4825    1.0000 0.69200  0.34338  0.51720  Biso   1.000  O 
  O4826    1.0000 0.68949  0.34338  0.54628  Biso   1.000  O 
  Ca1857   1.0000 0.65599  0.34338  0.51412  Biso   1.000  Ca
  P1113    1.0000 0.54995  0.34338  0.53729  Biso   1.000  P 
  O4827    1.0000 0.57350  0.34338  0.53707  Biso   1.000  O 
  O4828    1.0000 0.54122  0.34338  0.52089  Biso   1.000  O 
  Ca1858   1.0000 0.53018  0.28089  0.54190  Biso   1.000  Ca
  P1114    1.0000 0.50386  0.28089  0.51405  Biso   1.000  P 
  O4829    1.0000 0.64039  0.28089  0.55283  Biso   1.000  O 
  O4830    1.0000 0.73060  0.28089  0.51152  Biso   1.000  O 
  Ca1859   1.0000 0.62593  0.28089  0.52786  Biso   1.000  Ca
  P1115    1.0000 0.67119  0.28089  0.52468  Biso   1.000  P 
  O4831    1.0000 0.68322  0.28089  0.53989  Biso   1.000  O 
  O4832    1.0000 0.68573  0.28089  0.51080  Biso   1.000  O 
  Ca1860   1.0000 0.71922  0.28089  0.54297  Biso   1.000  Ca
  P1116    1.0000 0.57528  0.28089  0.51979  Biso   1.000  P 
  O4833    1.0000 0.55172  0.28089  0.52001  Biso   1.000  O 
  O4834    1.0000 0.58400  0.28089  0.53619  Biso   1.000  O 
  O4835    1.0000 0.62511  0.27438  0.50143  Biso   1.000  O 
  O4836    1.0000 0.62511  0.33687  0.50143  Biso   1.000  O 
  H371     1.0000 0.62511  0.25420  0.50143  Biso   1.000  H 
  H372     1.0000 0.62522  0.31669  0.50139  Biso   1.000  H 
  O4837    1.0000 0.73942  0.36585  0.58826  Biso   1.000  O 
  O4838    1.0000 0.59286  0.36585  0.58661  Biso   1.000  O 
  O4839    1.0000 0.66805  0.36585  0.60051  Biso   1.000  O 
  O4840    1.0000 0.63580  0.30335  0.57726  Biso   1.000  O 
  O4841    1.0000 0.53236  0.30335  0.57891  Biso   1.000  O 
  O4842    1.0000 0.70717  0.30335  0.56500  Biso   1.000  O 
  O4843    1.0000 0.63580  0.25842  0.57726  Biso   1.000  O 
  O4844    1.0000 0.53236  0.25842  0.57891  Biso   1.000  O 
  O4845    1.0000 0.70717  0.25842  0.56500  Biso   1.000  O 
  O4846    1.0000 0.73942  0.32093  0.58826  Biso   1.000  O 
  O4847    1.0000 0.59286  0.32093  0.58661  Biso   1.000  O 
  O4848    1.0000 0.66805  0.32093  0.60051  Biso   1.000  O 
  Ca1861   1.0000 0.66678  0.37445  0.55565  Biso   1.000  Ca
  Ca1862   1.0000 0.58344  0.31196  0.55565  Biso   1.000  Ca
  Ca1863   1.0000 0.58344  0.37482  0.55565  Biso   1.000  Ca
  Ca1864   1.0000 0.66678  0.31231  0.55565  Biso   1.000  Ca
  Ca1865   1.0000 0.72006  0.34338  0.56941  Biso   1.000  Ca
  P1117    1.0000 0.74636  0.34338  0.59725  Biso   1.000  P 
  O4849    1.0000 0.60984  0.34338  0.55847  Biso   1.000  O 
  O4850    1.0000 0.51963  0.34338  0.59978  Biso   1.000  O 
  Ca1866   1.0000 0.62429  0.34338  0.58343  Biso   1.000  Ca
  P1118    1.0000 0.57904  0.34338  0.58662  Biso   1.000  P 
  O4851    1.0000 0.56700  0.34338  0.57141  Biso   1.000  O 
  O4852    1.0000 0.56449  0.34338  0.60050  Biso   1.000  O 
  Ca1867   1.0000 0.53099  0.34338  0.56834  Biso   1.000  Ca
  P1119    1.0000 0.67495  0.34338  0.59151  Biso   1.000  P 
  O4853    1.0000 0.69850  0.34338  0.59129  Biso   1.000  O 
  O4854    1.0000 0.66622  0.34338  0.57511  Biso   1.000  O 
  Ca1868   1.0000 0.65518  0.28089  0.59611  Biso   1.000  Ca
  P1120    1.0000 0.62886  0.28089  0.56827  Biso   1.000  P 
  O4855    1.0000 0.51539  0.28089  0.60705  Biso   1.000  O 
  O4856    1.0000 0.60560  0.28089  0.56574  Biso   1.000  O 
  Ca1869   1.0000 0.50093  0.28089  0.58208  Biso   1.000  Ca
  P1121    1.0000 0.54619  0.28089  0.57890  Biso   1.000  P 
  O4857    1.0000 0.55822  0.28089  0.59411  Biso   1.000  O 
  O4858    1.0000 0.56073  0.28089  0.56502  Biso   1.000  O 
  Ca1870   1.0000 0.59422  0.28089  0.59719  Biso   1.000  Ca
  P1122    1.0000 0.70028  0.28089  0.57400  Biso   1.000  P 
  O4859    1.0000 0.67672  0.28089  0.57423  Biso   1.000  O 
  O4860    1.0000 0.70900  0.28089  0.59041  Biso   1.000  O 
  O4861    1.0000 0.50011  0.27438  0.55565  Biso   1.000  O 
  O4862    1.0000 0.50011  0.33687  0.55565  Biso   1.000  O 
  H373     1.0000 0.50011  0.25420  0.55565  Biso   1.000  H 
  H374     1.0000 0.50022  0.31669  0.55561  Biso   1.000  H 
  O4863    1.0000 0.61442  0.36585  0.64248  Biso   1.000  O 
  O4864    1.0000 0.71786  0.36585  0.64083  Biso   1.000  O 
  O4865    1.0000 0.54305  0.36585  0.65473  Biso   1.000  O 
  O4866    1.0000 0.51080  0.30335  0.63147  Biso   1.000  O 
  O4867    1.0000 0.65736  0.30335  0.63313  Biso   1.000  O 
  O4868    1.0000 0.58217  0.30335  0.61922  Biso   1.000  O 
  O4869    1.0000 0.51080  0.25842  0.63147  Biso   1.000  O 
  O4870    1.0000 0.65736  0.25842  0.63313  Biso   1.000  O 
  O4871    1.0000 0.58217  0.25842  0.61922  Biso   1.000  O 
  O4872    1.0000 0.61442  0.32093  0.64248  Biso   1.000  O 
  O4873    1.0000 0.71786  0.32093  0.64083  Biso   1.000  O 
  O4874    1.0000 0.54305  0.32093  0.65473  Biso   1.000  O 
  Ca1871   1.0000 0.54178  0.37445  0.60986  Biso   1.000  Ca
  Ca1872   1.0000 0.70844  0.31196  0.60987  Biso   1.000  Ca
  Ca1873   1.0000 0.70844  0.37482  0.60987  Biso   1.000  Ca
  Ca1874   1.0000 0.54178  0.31231  0.60986  Biso   1.000  Ca
  Ca1875   1.0000 0.59506  0.34338  0.62363  Biso   1.000  Ca
  P1123    1.0000 0.62136  0.34338  0.65147  Biso   1.000  P 
  O4875    1.0000 0.73484  0.34338  0.61269  Biso   1.000  O 
  O4876    1.0000 0.64463  0.34338  0.65400  Biso   1.000  O 
  Ca1876   1.0000 0.74929  0.34338  0.63765  Biso   1.000  Ca
  P1124    1.0000 0.70404  0.34338  0.64084  Biso   1.000  P 
  O4877    1.0000 0.69200  0.34338  0.62563  Biso   1.000  O 
  O4878    1.0000 0.68949  0.34338  0.65471  Biso   1.000  O 
  Ca1877   1.0000 0.65599  0.34338  0.62255  Biso   1.000  Ca
  P1125    1.0000 0.54995  0.34338  0.64573  Biso   1.000  P 
  O4879    1.0000 0.57350  0.34338  0.64551  Biso   1.000  O 
  O4880    1.0000 0.54122  0.34338  0.62933  Biso   1.000  O 
  Ca1878   1.0000 0.53018  0.28089  0.65033  Biso   1.000  Ca
  P1126    1.0000 0.50386  0.28089  0.62248  Biso   1.000  P 
  O4881    1.0000 0.64039  0.28089  0.66127  Biso   1.000  O 
  O4882    1.0000 0.73060  0.28089  0.61996  Biso   1.000  O 
  Ca1879   1.0000 0.62593  0.28089  0.63630  Biso   1.000  Ca
  P1127    1.0000 0.67119  0.28089  0.63312  Biso   1.000  P 
  O4883    1.0000 0.68322  0.28089  0.64833  Biso   1.000  O 
  O4884    1.0000 0.68573  0.28089  0.61924  Biso   1.000  O 
  Ca1880   1.0000 0.71922  0.28089  0.65141  Biso   1.000  Ca
  P1128    1.0000 0.57528  0.28089  0.62822  Biso   1.000  P 
  O4885    1.0000 0.55172  0.28089  0.62845  Biso   1.000  O 
  O4886    1.0000 0.58400  0.28089  0.64462  Biso   1.000  O 
  O4887    1.0000 0.62511  0.27438  0.60987  Biso   1.000  O 
  O4888    1.0000 0.62511  0.33687  0.60987  Biso   1.000  O 
  H375     1.0000 0.62511  0.25420  0.60987  Biso   1.000  H 
  H376     1.0000 0.62522  0.31669  0.60982  Biso   1.000  H 
  O4889    1.0000 0.73942  0.36585  0.69670  Biso   1.000  O 
  O4890    1.0000 0.59286  0.36585  0.69504  Biso   1.000  O 
  O4891    1.0000 0.66805  0.36585  0.70895  Biso   1.000  O 
  O4892    1.0000 0.63580  0.30335  0.68569  Biso   1.000  O 
  O4893    1.0000 0.53236  0.30335  0.68734  Biso   1.000  O 
  O4894    1.0000 0.70717  0.30335  0.67344  Biso   1.000  O 
  O4895    1.0000 0.63580  0.25842  0.68569  Biso   1.000  O 
  O4896    1.0000 0.53236  0.25842  0.68734  Biso   1.000  O 
  O4897    1.0000 0.70717  0.25842  0.67344  Biso   1.000  O 
  O4898    1.0000 0.73942  0.32093  0.69670  Biso   1.000  O 
  O4899    1.0000 0.59286  0.32093  0.69504  Biso   1.000  O 
  O4900    1.0000 0.66805  0.32093  0.70895  Biso   1.000  O 
  Ca1881   1.0000 0.66678  0.37445  0.66408  Biso   1.000  Ca
  Ca1882   1.0000 0.58344  0.31196  0.66409  Biso   1.000  Ca
  Ca1883   1.0000 0.58344  0.37482  0.66409  Biso   1.000  Ca
  Ca1884   1.0000 0.66678  0.31231  0.66408  Biso   1.000  Ca
  Ca1885   1.0000 0.72006  0.34338  0.67784  Biso   1.000  Ca
  P1129    1.0000 0.74636  0.34338  0.70569  Biso   1.000  P 
  O4901    1.0000 0.60984  0.34338  0.66691  Biso   1.000  O 
  O4902    1.0000 0.51963  0.34338  0.70822  Biso   1.000  O 
  Ca1886   1.0000 0.62429  0.34338  0.69187  Biso   1.000  Ca
  P1130    1.0000 0.57904  0.34338  0.69506  Biso   1.000  P 
  O4903    1.0000 0.56700  0.34338  0.67985  Biso   1.000  O 
  O4904    1.0000 0.56449  0.34338  0.70893  Biso   1.000  O 
  Ca1887   1.0000 0.53099  0.34338  0.67677  Biso   1.000  Ca
  P1131    1.0000 0.67495  0.34338  0.69995  Biso   1.000  P 
  O4905    1.0000 0.69850  0.34338  0.69973  Biso   1.000  O 
  O4906    1.0000 0.66622  0.34338  0.68355  Biso   1.000  O 
  Ca1888   1.0000 0.65518  0.28089  0.70455  Biso   1.000  Ca
  P1132    1.0000 0.62886  0.28089  0.67670  Biso   1.000  P 
  O4907    1.0000 0.51539  0.28089  0.71548  Biso   1.000  O 
  O4908    1.0000 0.60560  0.28089  0.67418  Biso   1.000  O 
  Ca1889   1.0000 0.50093  0.28089  0.69052  Biso   1.000  Ca
  P1133    1.0000 0.54619  0.28089  0.68733  Biso   1.000  P 
  O4909    1.0000 0.55822  0.28089  0.70255  Biso   1.000  O 
  O4910    1.0000 0.56073  0.28089  0.67346  Biso   1.000  O 
  Ca1890   1.0000 0.59422  0.28089  0.70563  Biso   1.000  Ca
  P1134    1.0000 0.70028  0.28089  0.68244  Biso   1.000  P 
  O4911    1.0000 0.67672  0.28089  0.68266  Biso   1.000  O 
  O4912    1.0000 0.70900  0.28089  0.69884  Biso   1.000  O 
  O4913    1.0000 0.50011  0.27438  0.66409  Biso   1.000  O 
  O4914    1.0000 0.50011  0.33687  0.66409  Biso   1.000  O 
  H377     1.0000 0.50011  0.25420  0.66409  Biso   1.000  H 
  H378     1.0000 0.50022  0.31669  0.66404  Biso   1.000  H 
  O4915    1.0000 0.61442  0.36585  0.75091  Biso   1.000  O 
  O4916    1.0000 0.71786  0.36585  0.74926  Biso   1.000  O 
  O4917    1.0000 0.54305  0.36585  0.76317  Biso   1.000  O 
  O4918    1.0000 0.51080  0.30335  0.73991  Biso   1.000  O 
  O4919    1.0000 0.65736  0.30335  0.74156  Biso   1.000  O 
  O4920    1.0000 0.58217  0.30335  0.72766  Biso   1.000  O 
  O4921    1.0000 0.51080  0.25842  0.73991  Biso   1.000  O 
  O4922    1.0000 0.65736  0.25842  0.74156  Biso   1.000  O 
  O4923    1.0000 0.58217  0.25842  0.72766  Biso   1.000  O 
  O4924    1.0000 0.61442  0.32093  0.75091  Biso   1.000  O 
  O4925    1.0000 0.71786  0.32093  0.74926  Biso   1.000  O 
  O4926    1.0000 0.54305  0.32093  0.76317  Biso   1.000  O 
  Ca1891   1.0000 0.54178  0.37445  0.71830  Biso   1.000  Ca
  Ca1892   1.0000 0.70844  0.31196  0.71831  Biso   1.000  Ca
  Ca1893   1.0000 0.70844  0.37482  0.71831  Biso   1.000  Ca
  Ca1894   1.0000 0.54178  0.31231  0.71830  Biso   1.000  Ca
  Ca1895   1.0000 0.59506  0.34338  0.73206  Biso   1.000  Ca
  P1135    1.0000 0.62136  0.34338  0.75990  Biso   1.000  P 
  O4927    1.0000 0.73484  0.34338  0.72113  Biso   1.000  O 
  O4928    1.0000 0.64463  0.34338  0.76243  Biso   1.000  O 
  Ca1896   1.0000 0.74929  0.34338  0.74609  Biso   1.000  Ca
  P1136    1.0000 0.70404  0.34338  0.74928  Biso   1.000  P 
  O4929    1.0000 0.69200  0.34338  0.73407  Biso   1.000  O 
  O4930    1.0000 0.68949  0.34338  0.76315  Biso   1.000  O 
  Ca1897   1.0000 0.65599  0.34338  0.73099  Biso   1.000  Ca
  P1137    1.0000 0.54995  0.34338  0.75417  Biso   1.000  P 
  O4931    1.0000 0.57350  0.34338  0.75394  Biso   1.000  O 
  O4932    1.0000 0.54122  0.34338  0.73776  Biso   1.000  O 
  Ca1898   1.0000 0.53018  0.28089  0.75877  Biso   1.000  Ca
  P1138    1.0000 0.50386  0.28089  0.73092  Biso   1.000  P 
  O4933    1.0000 0.64039  0.28089  0.76970  Biso   1.000  O 
  O4934    1.0000 0.73060  0.28089  0.72840  Biso   1.000  O 
  Ca1899   1.0000 0.62593  0.28089  0.74474  Biso   1.000  Ca
  P1139    1.0000 0.67119  0.28089  0.74155  Biso   1.000  P 
  O4935    1.0000 0.68322  0.28089  0.75677  Biso   1.000  O 
  O4936    1.0000 0.68573  0.28089  0.72767  Biso   1.000  O 
  Ca1900   1.0000 0.71922  0.28089  0.75984  Biso   1.000  Ca
  P1140    1.0000 0.57528  0.28089  0.73666  Biso   1.000  P 
  O4937    1.0000 0.55172  0.28089  0.73688  Biso   1.000  O 
  O4938    1.0000 0.58400  0.28089  0.75306  Biso   1.000  O 
  O4939    1.0000 0.62511  0.27438  0.71831  Biso   1.000  O 
  O4940    1.0000 0.62511  0.33687  0.71831  Biso   1.000  O 
  H379     1.0000 0.62511  0.25420  0.71831  Biso   1.000  H 
  H380     1.0000 0.62522  0.31669  0.71826  Biso   1.000  H 
  O4941    1.0000 0.73942  0.49085  0.26295  Biso   1.000  O 
  O4942    1.0000 0.59286  0.49085  0.26130  Biso   1.000  O 
  O4943    1.0000 0.66805  0.49085  0.27520  Biso   1.000  O 
  O4944    1.0000 0.63580  0.42835  0.25195  Biso   1.000  O 
  O4945    1.0000 0.53236  0.42835  0.25360  Biso   1.000  O 
  O4946    1.0000 0.70717  0.42835  0.23970  Biso   1.000  O 
  O4947    1.0000 0.63580  0.38342  0.25195  Biso   1.000  O 
  O4948    1.0000 0.53236  0.38342  0.25360  Biso   1.000  O 
  O4949    1.0000 0.70717  0.38342  0.23970  Biso   1.000  O 
  O4950    1.0000 0.73942  0.44593  0.26295  Biso   1.000  O 
  O4951    1.0000 0.59286  0.44593  0.26130  Biso   1.000  O 
  O4952    1.0000 0.66805  0.44593  0.27520  Biso   1.000  O 
  Ca1901   1.0000 0.66678  0.49945  0.23034  Biso   1.000  Ca
  Ca1902   1.0000 0.58344  0.43696  0.23035  Biso   1.000  Ca
  Ca1903   1.0000 0.58344  0.49982  0.23035  Biso   1.000  Ca
  Ca1904   1.0000 0.66678  0.43731  0.23034  Biso   1.000  Ca
  Ca1905   1.0000 0.72006  0.46838  0.24410  Biso   1.000  Ca
  P1141    1.0000 0.74636  0.46838  0.27194  Biso   1.000  P 
  O4953    1.0000 0.60984  0.46838  0.23317  Biso   1.000  O 
  O4954    1.0000 0.51963  0.46838  0.27447  Biso   1.000  O 
  Ca1906   1.0000 0.62429  0.46838  0.25813  Biso   1.000  Ca
  P1142    1.0000 0.57904  0.46838  0.26132  Biso   1.000  P 
  O4955    1.0000 0.56700  0.46838  0.24611  Biso   1.000  O 
  O4956    1.0000 0.56449  0.46838  0.27519  Biso   1.000  O 
  Ca1907   1.0000 0.53099  0.46838  0.24303  Biso   1.000  Ca
  P1143    1.0000 0.67495  0.46838  0.26620  Biso   1.000  P 
  O4957    1.0000 0.69850  0.46838  0.26598  Biso   1.000  O 
  O4958    1.0000 0.66622  0.46838  0.24980  Biso   1.000  O 
  Ca1908   1.0000 0.65518  0.40589  0.27081  Biso   1.000  Ca
  P1144    1.0000 0.62886  0.40589  0.24296  Biso   1.000  P 
  O4959    1.0000 0.51539  0.40589  0.28174  Biso   1.000  O 
  O4960    1.0000 0.60560  0.40589  0.24043  Biso   1.000  O 
  Ca1909   1.0000 0.50093  0.40589  0.25677  Biso   1.000  Ca
  P1145    1.0000 0.54619  0.40589  0.25359  Biso   1.000  P 
  O4961    1.0000 0.55822  0.40589  0.26880  Biso   1.000  O 
  O4962    1.0000 0.56073  0.40589  0.23971  Biso   1.000  O 
  Ca1910   1.0000 0.59422  0.40589  0.27188  Biso   1.000  Ca
  P1146    1.0000 0.70028  0.40589  0.24870  Biso   1.000  P 
  O4963    1.0000 0.67672  0.40589  0.24892  Biso   1.000  O 
  O4964    1.0000 0.70900  0.40589  0.26510  Biso   1.000  O 
  O4965    1.0000 0.50011  0.39938  0.23034  Biso   1.000  O 
  O4966    1.0000 0.50011  0.46187  0.23034  Biso   1.000  O 
  H381     1.0000 0.50011  0.37920  0.23034  Biso   1.000  H 
  H382     1.0000 0.50022  0.44169  0.23030  Biso   1.000  H 
  O4967    1.0000 0.61442  0.49085  0.31717  Biso   1.000  O 
  O4968    1.0000 0.71786  0.49085  0.31552  Biso   1.000  O 
  O4969    1.0000 0.54305  0.49085  0.32942  Biso   1.000  O 
  O4970    1.0000 0.51080  0.42835  0.30617  Biso   1.000  O 
  O4971    1.0000 0.65736  0.42835  0.30782  Biso   1.000  O 
  O4972    1.0000 0.58217  0.42835  0.29391  Biso   1.000  O 
  O4973    1.0000 0.51080  0.38342  0.30617  Biso   1.000  O 
  O4974    1.0000 0.65736  0.38342  0.30782  Biso   1.000  O 
  O4975    1.0000 0.58217  0.38342  0.29391  Biso   1.000  O 
  O4976    1.0000 0.61442  0.44593  0.31717  Biso   1.000  O 
  O4977    1.0000 0.71786  0.44593  0.31552  Biso   1.000  O 
  O4978    1.0000 0.54305  0.44593  0.32942  Biso   1.000  O 
  Ca1911   1.0000 0.54178  0.49945  0.28456  Biso   1.000  Ca
  Ca1912   1.0000 0.70844  0.43696  0.28456  Biso   1.000  Ca
  Ca1913   1.0000 0.70844  0.49982  0.28456  Biso   1.000  Ca
  Ca1914   1.0000 0.54178  0.43731  0.28456  Biso   1.000  Ca
  Ca1915   1.0000 0.59506  0.46838  0.29832  Biso   1.000  Ca
  P1147    1.0000 0.62136  0.46838  0.32616  Biso   1.000  P 
  O4979    1.0000 0.73484  0.46838  0.28738  Biso   1.000  O 
  O4980    1.0000 0.64463  0.46838  0.32869  Biso   1.000  O 
  Ca1916   1.0000 0.74929  0.46838  0.31234  Biso   1.000  Ca
  P1148    1.0000 0.70404  0.46838  0.31554  Biso   1.000  P 
  O4981    1.0000 0.69200  0.46838  0.30033  Biso   1.000  O 
  O4982    1.0000 0.68949  0.46838  0.32941  Biso   1.000  O 
  Ca1917   1.0000 0.65599  0.46838  0.29725  Biso   1.000  Ca
  P1149    1.0000 0.54995  0.46838  0.32042  Biso   1.000  P 
  O4983    1.0000 0.57350  0.46838  0.32020  Biso   1.000  O 
  O4984    1.0000 0.54122  0.46838  0.30402  Biso   1.000  O 
  Ca1918   1.0000 0.53018  0.40589  0.32502  Biso   1.000  Ca
  P1150    1.0000 0.50386  0.40589  0.29718  Biso   1.000  P 
  O4985    1.0000 0.64039  0.40589  0.33596  Biso   1.000  O 
  O4986    1.0000 0.73060  0.40589  0.29465  Biso   1.000  O 
  Ca1919   1.0000 0.62593  0.40589  0.31099  Biso   1.000  Ca
  P1151    1.0000 0.67119  0.40589  0.30781  Biso   1.000  P 
  O4987    1.0000 0.68322  0.40589  0.32302  Biso   1.000  O 
  O4988    1.0000 0.68573  0.40589  0.29393  Biso   1.000  O 
  Ca1920   1.0000 0.71922  0.40589  0.32610  Biso   1.000  Ca
  P1152    1.0000 0.57528  0.40589  0.30291  Biso   1.000  P 
  O4989    1.0000 0.55172  0.40589  0.30314  Biso   1.000  O 
  O4990    1.0000 0.58400  0.40589  0.31932  Biso   1.000  O 
  O4991    1.0000 0.62511  0.39938  0.28456  Biso   1.000  O 
  O4992    1.0000 0.62511  0.46187  0.28456  Biso   1.000  O 
  H383     1.0000 0.62511  0.37920  0.28456  Biso   1.000  H 
  H384     1.0000 0.62522  0.44169  0.28452  Biso   1.000  H 
  O4993    1.0000 0.73942  0.49085  0.37139  Biso   1.000  O 
  O4994    1.0000 0.59286  0.49085  0.36974  Biso   1.000  O 
  O4995    1.0000 0.66805  0.49085  0.38364  Biso   1.000  O 
  O4996    1.0000 0.63580  0.42835  0.36038  Biso   1.000  O 
  O4997    1.0000 0.53236  0.42835  0.36204  Biso   1.000  O 
  O4998    1.0000 0.70717  0.42835  0.34813  Biso   1.000  O 
  O4999    1.0000 0.63580  0.38342  0.36038  Biso   1.000  O 
  O5000    1.0000 0.53236  0.38342  0.36204  Biso   1.000  O 
  O5001    1.0000 0.70717  0.38342  0.34813  Biso   1.000  O 
  O5002    1.0000 0.73942  0.44593  0.37139  Biso   1.000  O 
  O5003    1.0000 0.59286  0.44593  0.36974  Biso   1.000  O 
  O5004    1.0000 0.66805  0.44593  0.38364  Biso   1.000  O 
  Ca1921   1.0000 0.66678  0.49945  0.33877  Biso   1.000  Ca
  Ca1922   1.0000 0.58344  0.43696  0.33878  Biso   1.000  Ca
  Ca1923   1.0000 0.58344  0.49982  0.33878  Biso   1.000  Ca
  Ca1924   1.0000 0.66678  0.43731  0.33877  Biso   1.000  Ca
  Ca1925   1.0000 0.72006  0.46838  0.35254  Biso   1.000  Ca
  P1153    1.0000 0.74636  0.46838  0.38038  Biso   1.000  P 
  O5005    1.0000 0.60984  0.46838  0.34160  Biso   1.000  O 
  O5006    1.0000 0.51963  0.46838  0.38291  Biso   1.000  O 
  Ca1926   1.0000 0.62429  0.46838  0.36656  Biso   1.000  Ca
  P1154    1.0000 0.57904  0.46838  0.36975  Biso   1.000  P 
  O5007    1.0000 0.56700  0.46838  0.35454  Biso   1.000  O 
  O5008    1.0000 0.56449  0.46838  0.38362  Biso   1.000  O 
  Ca1927   1.0000 0.53099  0.46838  0.35146  Biso   1.000  Ca
  P1155    1.0000 0.67495  0.46838  0.37464  Biso   1.000  P 
  O5009    1.0000 0.69850  0.46838  0.37442  Biso   1.000  O 
  O5010    1.0000 0.66622  0.46838  0.35824  Biso   1.000  O 
  Ca1928   1.0000 0.65518  0.40589  0.37924  Biso   1.000  Ca
  P1156    1.0000 0.62886  0.40589  0.35140  Biso   1.000  P 
  O5011    1.0000 0.51539  0.40589  0.39018  Biso   1.000  O 
  O5012    1.0000 0.60560  0.40589  0.34887  Biso   1.000  O 
  Ca1929   1.0000 0.50093  0.40589  0.36521  Biso   1.000  Ca
  P1157    1.0000 0.54619  0.40589  0.36203  Biso   1.000  P 
  O5013    1.0000 0.55822  0.40589  0.37724  Biso   1.000  O 
  O5014    1.0000 0.56073  0.40589  0.34815  Biso   1.000  O 
  Ca1930   1.0000 0.59422  0.40589  0.38032  Biso   1.000  Ca
  P1158    1.0000 0.70028  0.40589  0.35713  Biso   1.000  P 
  O5015    1.0000 0.67672  0.40589  0.35736  Biso   1.000  O 
  O5016    1.0000 0.70900  0.40589  0.37353  Biso   1.000  O 
  O5017    1.0000 0.50011  0.39938  0.33878  Biso   1.000  O 
  O5018    1.0000 0.50011  0.46187  0.33878  Biso   1.000  O 
  H385     1.0000 0.50011  0.37920  0.33878  Biso   1.000  H 
  H386     1.0000 0.50022  0.44169  0.33873  Biso   1.000  H 
  O5019    1.0000 0.61442  0.49085  0.42561  Biso   1.000  O 
  O5020    1.0000 0.71786  0.49085  0.42395  Biso   1.000  O 
  O5021    1.0000 0.54305  0.49085  0.43786  Biso   1.000  O 
  O5022    1.0000 0.51080  0.42835  0.41460  Biso   1.000  O 
  O5023    1.0000 0.65736  0.42835  0.41625  Biso   1.000  O 
  O5024    1.0000 0.58217  0.42835  0.40235  Biso   1.000  O 
  O5025    1.0000 0.51080  0.38342  0.41460  Biso   1.000  O 
  O5026    1.0000 0.65736  0.38342  0.41625  Biso   1.000  O 
  O5027    1.0000 0.58217  0.38342  0.40235  Biso   1.000  O 
  O5028    1.0000 0.61442  0.44593  0.42561  Biso   1.000  O 
  O5029    1.0000 0.71786  0.44593  0.42395  Biso   1.000  O 
  O5030    1.0000 0.54305  0.44593  0.43786  Biso   1.000  O 
  Ca1931   1.0000 0.54178  0.49945  0.39299  Biso   1.000  Ca
  Ca1932   1.0000 0.70844  0.43696  0.39300  Biso   1.000  Ca
  Ca1933   1.0000 0.70844  0.49982  0.39300  Biso   1.000  Ca
  Ca1934   1.0000 0.54178  0.43731  0.39299  Biso   1.000  Ca
  Ca1935   1.0000 0.59506  0.46838  0.40675  Biso   1.000  Ca
  P1159    1.0000 0.62136  0.46838  0.43460  Biso   1.000  P 
  O5031    1.0000 0.73484  0.46838  0.39582  Biso   1.000  O 
  O5032    1.0000 0.64463  0.46838  0.43713  Biso   1.000  O 
  Ca1936   1.0000 0.74929  0.46838  0.42078  Biso   1.000  Ca
  P1160    1.0000 0.70404  0.46838  0.42397  Biso   1.000  P 
  O5033    1.0000 0.69200  0.46838  0.40876  Biso   1.000  O 
  O5034    1.0000 0.68949  0.46838  0.43784  Biso   1.000  O 
  Ca1937   1.0000 0.65599  0.46838  0.40568  Biso   1.000  Ca
  P1161    1.0000 0.54995  0.46838  0.42886  Biso   1.000  P 
  O5035    1.0000 0.57350  0.46838  0.42864  Biso   1.000  O 
  O5036    1.0000 0.54122  0.46838  0.41246  Biso   1.000  O 
  Ca1938   1.0000 0.53018  0.40589  0.43346  Biso   1.000  Ca
  P1162    1.0000 0.50386  0.40589  0.40561  Biso   1.000  P 
  O5037    1.0000 0.64039  0.40589  0.44439  Biso   1.000  O 
  O5038    1.0000 0.73060  0.40589  0.40309  Biso   1.000  O 
  Ca1939   1.0000 0.62593  0.40589  0.41943  Biso   1.000  Ca
  P1163    1.0000 0.67119  0.40589  0.41624  Biso   1.000  P 
  O5039    1.0000 0.68322  0.40589  0.43146  Biso   1.000  O 
  O5040    1.0000 0.68573  0.40589  0.40237  Biso   1.000  O 
  Ca1940   1.0000 0.71922  0.40589  0.43454  Biso   1.000  Ca
  P1164    1.0000 0.57528  0.40589  0.41135  Biso   1.000  P 
  O5041    1.0000 0.55172  0.40589  0.41157  Biso   1.000  O 
  O5042    1.0000 0.58400  0.40589  0.42775  Biso   1.000  O 
  O5043    1.0000 0.62511  0.39938  0.39300  Biso   1.000  O 
  O5044    1.0000 0.62511  0.46187  0.39300  Biso   1.000  O 
  H387     1.0000 0.62511  0.37920  0.39300  Biso   1.000  H 
  H388     1.0000 0.62522  0.44169  0.39295  Biso   1.000  H 
  O5045    1.0000 0.73942  0.49085  0.47982  Biso   1.000  O 
  O5046    1.0000 0.59286  0.49085  0.47817  Biso   1.000  O 
  O5047    1.0000 0.66805  0.49085  0.49208  Biso   1.000  O 
  O5048    1.0000 0.63580  0.42835  0.46882  Biso   1.000  O 
  O5049    1.0000 0.53236  0.42835  0.47047  Biso   1.000  O 
  O5050    1.0000 0.70717  0.42835  0.45657  Biso   1.000  O 
  O5051    1.0000 0.63580  0.38342  0.46882  Biso   1.000  O 
  O5052    1.0000 0.53236  0.38342  0.47047  Biso   1.000  O 
  O5053    1.0000 0.70717  0.38342  0.45657  Biso   1.000  O 
  O5054    1.0000 0.73942  0.44593  0.47982  Biso   1.000  O 
  O5055    1.0000 0.59286  0.44593  0.47817  Biso   1.000  O 
  O5056    1.0000 0.66805  0.44593  0.49208  Biso   1.000  O 
  Ca1941   1.0000 0.66678  0.49945  0.44721  Biso   1.000  Ca
  Ca1942   1.0000 0.58344  0.43696  0.44722  Biso   1.000  Ca
  Ca1943   1.0000 0.58344  0.49982  0.44722  Biso   1.000  Ca
  Ca1944   1.0000 0.66678  0.43731  0.44721  Biso   1.000  Ca
  Ca1945   1.0000 0.72006  0.46838  0.46097  Biso   1.000  Ca
  P1165    1.0000 0.74636  0.46838  0.48881  Biso   1.000  P 
  O5057    1.0000 0.60984  0.46838  0.45004  Biso   1.000  O 
  O5058    1.0000 0.51963  0.46838  0.49134  Biso   1.000  O 
  Ca1946   1.0000 0.62429  0.46838  0.47500  Biso   1.000  Ca
  P1166    1.0000 0.57904  0.46838  0.47819  Biso   1.000  P 
  O5059    1.0000 0.56700  0.46838  0.46298  Biso   1.000  O 
  O5060    1.0000 0.56449  0.46838  0.49206  Biso   1.000  O 
  Ca1947   1.0000 0.53099  0.46838  0.45990  Biso   1.000  Ca
  P1167    1.0000 0.67495  0.46838  0.48308  Biso   1.000  P 
  O5061    1.0000 0.69850  0.46838  0.48285  Biso   1.000  O 
  O5062    1.0000 0.66622  0.46838  0.46667  Biso   1.000  O 
  Ca1948   1.0000 0.65518  0.40589  0.48768  Biso   1.000  Ca
  P1168    1.0000 0.62886  0.40589  0.45983  Biso   1.000  P 
  O5063    1.0000 0.51539  0.40589  0.49861  Biso   1.000  O 
  O5064    1.0000 0.60560  0.40589  0.45731  Biso   1.000  O 
  Ca1949   1.0000 0.50093  0.40589  0.47365  Biso   1.000  Ca
  P1169    1.0000 0.54619  0.40589  0.47046  Biso   1.000  P 
  O5065    1.0000 0.55822  0.40589  0.48568  Biso   1.000  O 
  O5066    1.0000 0.56073  0.40589  0.45658  Biso   1.000  O 
  Ca1950   1.0000 0.59422  0.40589  0.48875  Biso   1.000  Ca
  P1170    1.0000 0.70028  0.40589  0.46557  Biso   1.000  P 
  O5067    1.0000 0.67672  0.40589  0.46579  Biso   1.000  O 
  O5068    1.0000 0.70900  0.40589  0.48197  Biso   1.000  O 
  O5069    1.0000 0.50011  0.39938  0.44722  Biso   1.000  O 
  O5070    1.0000 0.50011  0.46187  0.44722  Biso   1.000  O 
  H389     1.0000 0.50011  0.37920  0.44722  Biso   1.000  H 
  H390     1.0000 0.50022  0.44169  0.44717  Biso   1.000  H 
  O5071    1.0000 0.61442  0.49085  0.53404  Biso   1.000  O 
  O5072    1.0000 0.71786  0.49085  0.53239  Biso   1.000  O 
  O5073    1.0000 0.54305  0.49085  0.54629  Biso   1.000  O 
  O5074    1.0000 0.51080  0.42835  0.52304  Biso   1.000  O 
  O5075    1.0000 0.65736  0.42835  0.52469  Biso   1.000  O 
  O5076    1.0000 0.58217  0.42835  0.51079  Biso   1.000  O 
  O5077    1.0000 0.51080  0.38342  0.52304  Biso   1.000  O 
  O5078    1.0000 0.65736  0.38342  0.52469  Biso   1.000  O 
  O5079    1.0000 0.58217  0.38342  0.51079  Biso   1.000  O 
  O5080    1.0000 0.61442  0.44593  0.53404  Biso   1.000  O 
  O5081    1.0000 0.71786  0.44593  0.53239  Biso   1.000  O 
  O5082    1.0000 0.54305  0.44593  0.54629  Biso   1.000  O 
  Ca1951   1.0000 0.54178  0.49945  0.50143  Biso   1.000  Ca
  Ca1952   1.0000 0.70844  0.43696  0.50144  Biso   1.000  Ca
  Ca1953   1.0000 0.70844  0.49982  0.50144  Biso   1.000  Ca
  Ca1954   1.0000 0.54178  0.43731  0.50143  Biso   1.000  Ca
  Ca1955   1.0000 0.59506  0.46838  0.51519  Biso   1.000  Ca
  P1171    1.0000 0.62136  0.46838  0.54303  Biso   1.000  P 
  O5083    1.0000 0.73484  0.46838  0.50426  Biso   1.000  O 
  O5084    1.0000 0.64463  0.46838  0.54556  Biso   1.000  O 
  Ca1956   1.0000 0.74929  0.46838  0.52922  Biso   1.000  Ca
  P1172    1.0000 0.70404  0.46838  0.53241  Biso   1.000  P 
  O5085    1.0000 0.69200  0.46838  0.51720  Biso   1.000  O 
  O5086    1.0000 0.68949  0.46838  0.54628  Biso   1.000  O 
  Ca1957   1.0000 0.65599  0.46838  0.51412  Biso   1.000  Ca
  P1173    1.0000 0.54995  0.46838  0.53729  Biso   1.000  P 
  O5087    1.0000 0.57350  0.46838  0.53707  Biso   1.000  O 
  O5088    1.0000 0.54122  0.46838  0.52089  Biso   1.000  O 
  Ca1958   1.0000 0.53018  0.40589  0.54190  Biso   1.000  Ca
  P1174    1.0000 0.50386  0.40589  0.51405  Biso   1.000  P 
  O5089    1.0000 0.64039  0.40589  0.55283  Biso   1.000  O 
  O5090    1.0000 0.73060  0.40589  0.51152  Biso   1.000  O 
  Ca1959   1.0000 0.62593  0.40589  0.52786  Biso   1.000  Ca
  P1175    1.0000 0.67119  0.40589  0.52468  Biso   1.000  P 
  O5091    1.0000 0.68322  0.40589  0.53989  Biso   1.000  O 
  O5092    1.0000 0.68573  0.40589  0.51080  Biso   1.000  O 
  Ca1960   1.0000 0.71922  0.40589  0.54297  Biso   1.000  Ca
  P1176    1.0000 0.57528  0.40589  0.51979  Biso   1.000  P 
  O5093    1.0000 0.55172  0.40589  0.52001  Biso   1.000  O 
  O5094    1.0000 0.58400  0.40589  0.53619  Biso   1.000  O 
  O5095    1.0000 0.62511  0.39938  0.50143  Biso   1.000  O 
  O5096    1.0000 0.62511  0.46187  0.50143  Biso   1.000  O 
  H391     1.0000 0.62511  0.37920  0.50143  Biso   1.000  H 
  H392     1.0000 0.62522  0.44169  0.50139  Biso   1.000  H 
  O5097    1.0000 0.73942  0.49085  0.58826  Biso   1.000  O 
  O5098    1.0000 0.59286  0.49085  0.58661  Biso   1.000  O 
  O5099    1.0000 0.66805  0.49085  0.60051  Biso   1.000  O 
  O5100    1.0000 0.63580  0.42835  0.57726  Biso   1.000  O 
  O5101    1.0000 0.53236  0.42835  0.57891  Biso   1.000  O 
  O5102    1.0000 0.70717  0.42835  0.56500  Biso   1.000  O 
  O5103    1.0000 0.63580  0.38342  0.57726  Biso   1.000  O 
  O5104    1.0000 0.53236  0.38342  0.57891  Biso   1.000  O 
  O5105    1.0000 0.70717  0.38342  0.56500  Biso   1.000  O 
  O5106    1.0000 0.73942  0.44593  0.58826  Biso   1.000  O 
  O5107    1.0000 0.59286  0.44593  0.58661  Biso   1.000  O 
  O5108    1.0000 0.66805  0.44593  0.60051  Biso   1.000  O 
  Ca1961   1.0000 0.66678  0.49945  0.55565  Biso   1.000  Ca
  Ca1962   1.0000 0.58344  0.43696  0.55565  Biso   1.000  Ca
  Ca1963   1.0000 0.58344  0.49982  0.55565  Biso   1.000  Ca
  Ca1964   1.0000 0.66678  0.43731  0.55565  Biso   1.000  Ca
  Ca1965   1.0000 0.72006  0.46838  0.56941  Biso   1.000  Ca
  P1177    1.0000 0.74636  0.46838  0.59725  Biso   1.000  P 
  O5109    1.0000 0.60984  0.46838  0.55847  Biso   1.000  O 
  O5110    1.0000 0.51963  0.46838  0.59978  Biso   1.000  O 
  Ca1966   1.0000 0.62429  0.46838  0.58343  Biso   1.000  Ca
  P1178    1.0000 0.57904  0.46838  0.58662  Biso   1.000  P 
  O5111    1.0000 0.56700  0.46838  0.57141  Biso   1.000  O 
  O5112    1.0000 0.56449  0.46838  0.60050  Biso   1.000  O 
  Ca1967   1.0000 0.53099  0.46838  0.56834  Biso   1.000  Ca
  P1179    1.0000 0.67495  0.46838  0.59151  Biso   1.000  P 
  O5113    1.0000 0.69850  0.46838  0.59129  Biso   1.000  O 
  O5114    1.0000 0.66622  0.46838  0.57511  Biso   1.000  O 
  Ca1968   1.0000 0.65518  0.40589  0.59611  Biso   1.000  Ca
  P1180    1.0000 0.62886  0.40589  0.56827  Biso   1.000  P 
  O5115    1.0000 0.51539  0.40589  0.60705  Biso   1.000  O 
  O5116    1.0000 0.60560  0.40589  0.56574  Biso   1.000  O 
  Ca1969   1.0000 0.50093  0.40589  0.58208  Biso   1.000  Ca
  P1181    1.0000 0.54619  0.40589  0.57890  Biso   1.000  P 
  O5117    1.0000 0.55822  0.40589  0.59411  Biso   1.000  O 
  O5118    1.0000 0.56073  0.40589  0.56502  Biso   1.000  O 
  Ca1970   1.0000 0.59422  0.40589  0.59719  Biso   1.000  Ca
  P1182    1.0000 0.70028  0.40589  0.57400  Biso   1.000  P 
  O5119    1.0000 0.67672  0.40589  0.57423  Biso   1.000  O 
  O5120    1.0000 0.70900  0.40589  0.59041  Biso   1.000  O 
  O5121    1.0000 0.50011  0.39938  0.55565  Biso   1.000  O 
  O5122    1.0000 0.50011  0.46187  0.55565  Biso   1.000  O 
  H393     1.0000 0.50011  0.37920  0.55565  Biso   1.000  H 
  H394     1.0000 0.50022  0.44169  0.55561  Biso   1.000  H 
  O5123    1.0000 0.61442  0.49085  0.64248  Biso   1.000  O 
  O5124    1.0000 0.71786  0.49085  0.64083  Biso   1.000  O 
  O5125    1.0000 0.54305  0.49085  0.65473  Biso   1.000  O 
  O5126    1.0000 0.51080  0.42835  0.63147  Biso   1.000  O 
  O5127    1.0000 0.65736  0.42835  0.63313  Biso   1.000  O 
  O5128    1.0000 0.58217  0.42835  0.61922  Biso   1.000  O 
  O5129    1.0000 0.51080  0.38342  0.63147  Biso   1.000  O 
  O5130    1.0000 0.65736  0.38342  0.63313  Biso   1.000  O 
  O5131    1.0000 0.58217  0.38342  0.61922  Biso   1.000  O 
  O5132    1.0000 0.61442  0.44593  0.64248  Biso   1.000  O 
  O5133    1.0000 0.71786  0.44593  0.64083  Biso   1.000  O 
  O5134    1.0000 0.54305  0.44593  0.65473  Biso   1.000  O 
  Ca1971   1.0000 0.54178  0.49945  0.60986  Biso   1.000  Ca
  Ca1972   1.0000 0.70844  0.43696  0.60987  Biso   1.000  Ca
  Ca1973   1.0000 0.70844  0.49982  0.60987  Biso   1.000  Ca
  Ca1974   1.0000 0.54178  0.43731  0.60986  Biso   1.000  Ca
  Ca1975   1.0000 0.59506  0.46838  0.62363  Biso   1.000  Ca
  P1183    1.0000 0.62136  0.46838  0.65147  Biso   1.000  P 
  O5135    1.0000 0.73484  0.46838  0.61269  Biso   1.000  O 
  O5136    1.0000 0.64463  0.46838  0.65400  Biso   1.000  O 
  Ca1976   1.0000 0.74929  0.46838  0.63765  Biso   1.000  Ca
  P1184    1.0000 0.70404  0.46838  0.64084  Biso   1.000  P 
  O5137    1.0000 0.69200  0.46838  0.62563  Biso   1.000  O 
  O5138    1.0000 0.68949  0.46838  0.65471  Biso   1.000  O 
  Ca1977   1.0000 0.65599  0.46838  0.62255  Biso   1.000  Ca
  P1185    1.0000 0.54995  0.46838  0.64573  Biso   1.000  P 
  O5139    1.0000 0.57350  0.46838  0.64551  Biso   1.000  O 
  O5140    1.0000 0.54122  0.46838  0.62933  Biso   1.000  O 
  Ca1978   1.0000 0.53018  0.40589  0.65033  Biso   1.000  Ca
  P1186    1.0000 0.50386  0.40589  0.62248  Biso   1.000  P 
  O5141    1.0000 0.64039  0.40589  0.66127  Biso   1.000  O 
  O5142    1.0000 0.73060  0.40589  0.61996  Biso   1.000  O 
  Ca1979   1.0000 0.62593  0.40589  0.63630  Biso   1.000  Ca
  P1187    1.0000 0.67119  0.40589  0.63312  Biso   1.000  P 
  O5143    1.0000 0.68322  0.40589  0.64833  Biso   1.000  O 
  O5144    1.0000 0.68573  0.40589  0.61924  Biso   1.000  O 
  Ca1980   1.0000 0.71922  0.40589  0.65141  Biso   1.000  Ca
  P1188    1.0000 0.57528  0.40589  0.62822  Biso   1.000  P 
  O5145    1.0000 0.55172  0.40589  0.62845  Biso   1.000  O 
  O5146    1.0000 0.58400  0.40589  0.64462  Biso   1.000  O 
  O5147    1.0000 0.62511  0.39938  0.60987  Biso   1.000  O 
  O5148    1.0000 0.62511  0.46187  0.60987  Biso   1.000  O 
  H395     1.0000 0.62511  0.37920  0.60987  Biso   1.000  H 
  H396     1.0000 0.62522  0.44169  0.60982  Biso   1.000  H 
  O5149    1.0000 0.73942  0.49085  0.69670  Biso   1.000  O 
  O5150    1.0000 0.59286  0.49085  0.69504  Biso   1.000  O 
  O5151    1.0000 0.66805  0.49085  0.70895  Biso   1.000  O 
  O5152    1.0000 0.63580  0.42835  0.68569  Biso   1.000  O 
  O5153    1.0000 0.53236  0.42835  0.68734  Biso   1.000  O 
  O5154    1.0000 0.70717  0.42835  0.67344  Biso   1.000  O 
  O5155    1.0000 0.63580  0.38342  0.68569  Biso   1.000  O 
  O5156    1.0000 0.53236  0.38342  0.68734  Biso   1.000  O 
  O5157    1.0000 0.70717  0.38342  0.67344  Biso   1.000  O 
  O5158    1.0000 0.73942  0.44593  0.69670  Biso   1.000  O 
  O5159    1.0000 0.59286  0.44593  0.69504  Biso   1.000  O 
  O5160    1.0000 0.66805  0.44593  0.70895  Biso   1.000  O 
  Ca1981   1.0000 0.66678  0.49945  0.66408  Biso   1.000  Ca
  Ca1982   1.0000 0.58344  0.43696  0.66409  Biso   1.000  Ca
  Ca1983   1.0000 0.58344  0.49982  0.66409  Biso   1.000  Ca
  Ca1984   1.0000 0.66678  0.43731  0.66408  Biso   1.000  Ca
  Ca1985   1.0000 0.72006  0.46838  0.67784  Biso   1.000  Ca
  P1189    1.0000 0.74636  0.46838  0.70569  Biso   1.000  P 
  O5161    1.0000 0.60984  0.46838  0.66691  Biso   1.000  O 
  O5162    1.0000 0.51963  0.46838  0.70822  Biso   1.000  O 
  Ca1986   1.0000 0.62429  0.46838  0.69187  Biso   1.000  Ca
  P1190    1.0000 0.57904  0.46838  0.69506  Biso   1.000  P 
  O5163    1.0000 0.56700  0.46838  0.67985  Biso   1.000  O 
  O5164    1.0000 0.56449  0.46838  0.70893  Biso   1.000  O 
  Ca1987   1.0000 0.53099  0.46838  0.67677  Biso   1.000  Ca
  P1191    1.0000 0.67495  0.46838  0.69995  Biso   1.000  P 
  O5165    1.0000 0.69850  0.46838  0.69973  Biso   1.000  O 
  O5166    1.0000 0.66622  0.46838  0.68355  Biso   1.000  O 
  Ca1988   1.0000 0.65518  0.40589  0.70455  Biso   1.000  Ca
  P1192    1.0000 0.62886  0.40589  0.67670  Biso   1.000  P 
  O5167    1.0000 0.51539  0.40589  0.71548  Biso   1.000  O 
  O5168    1.0000 0.60560  0.40589  0.67418  Biso   1.000  O 
  Ca1989   1.0000 0.50093  0.40589  0.69052  Biso   1.000  Ca
  P1193    1.0000 0.54619  0.40589  0.68733  Biso   1.000  P 
  O5169    1.0000 0.55822  0.40589  0.70255  Biso   1.000  O 
  O5170    1.0000 0.56073  0.40589  0.67346  Biso   1.000  O 
  Ca1990   1.0000 0.59422  0.40589  0.70563  Biso   1.000  Ca
  P1194    1.0000 0.70028  0.40589  0.68244  Biso   1.000  P 
  O5171    1.0000 0.67672  0.40589  0.68266  Biso   1.000  O 
  O5172    1.0000 0.70900  0.40589  0.69884  Biso   1.000  O 
  O5173    1.0000 0.50011  0.39938  0.66409  Biso   1.000  O 
  O5174    1.0000 0.50011  0.46187  0.66409  Biso   1.000  O 
  H397     1.0000 0.50011  0.37920  0.66409  Biso   1.000  H 
  H398     1.0000 0.50022  0.44169  0.66404  Biso   1.000  H 
  O5175    1.0000 0.61442  0.49085  0.75091  Biso   1.000  O 
  O5176    1.0000 0.71786  0.49085  0.74926  Biso   1.000  O 
  O5177    1.0000 0.54305  0.49085  0.76317  Biso   1.000  O 
  O5178    1.0000 0.51080  0.42835  0.73991  Biso   1.000  O 
  O5179    1.0000 0.65736  0.42835  0.74156  Biso   1.000  O 
  O5180    1.0000 0.58217  0.42835  0.72766  Biso   1.000  O 
  O5181    1.0000 0.51080  0.38342  0.73991  Biso   1.000  O 
  O5182    1.0000 0.65736  0.38342  0.74156  Biso   1.000  O 
  O5183    1.0000 0.58217  0.38342  0.72766  Biso   1.000  O 
  O5184    1.0000 0.61442  0.44593  0.75091  Biso   1.000  O 
  O5185    1.0000 0.71786  0.44593  0.74926  Biso   1.000  O 
  O5186    1.0000 0.54305  0.44593  0.76317  Biso   1.000  O 
  Ca1991   1.0000 0.54178  0.49945  0.71830  Biso   1.000  Ca
  Ca1992   1.0000 0.70844  0.43696  0.71831  Biso   1.000  Ca
  Ca1993   1.0000 0.70844  0.49982  0.71831  Biso   1.000  Ca
  Ca1994   1.0000 0.54178  0.43731  0.71830  Biso   1.000  Ca
  Ca1995   1.0000 0.59506  0.46838  0.73206  Biso   1.000  Ca
  P1195    1.0000 0.62136  0.46838  0.75990  Biso   1.000  P 
  O5187    1.0000 0.73484  0.46838  0.72113  Biso   1.000  O 
  O5188    1.0000 0.64463  0.46838  0.76243  Biso   1.000  O 
  Ca1996   1.0000 0.74929  0.46838  0.74609  Biso   1.000  Ca
  P1196    1.0000 0.70404  0.46838  0.74928  Biso   1.000  P 
  O5189    1.0000 0.69200  0.46838  0.73407  Biso   1.000  O 
  O5190    1.0000 0.68949  0.46838  0.76315  Biso   1.000  O 
  Ca1997   1.0000 0.65599  0.46838  0.73099  Biso   1.000  Ca
  P1197    1.0000 0.54995  0.46838  0.75417  Biso   1.000  P 
  O5191    1.0000 0.57350  0.46838  0.75394  Biso   1.000  O 
  O5192    1.0000 0.54122  0.46838  0.73776  Biso   1.000  O 
  Ca1998   1.0000 0.53018  0.40589  0.75877  Biso   1.000  Ca
  P1198    1.0000 0.50386  0.40589  0.73092  Biso   1.000  P 
  O5193    1.0000 0.64039  0.40589  0.76970  Biso   1.000  O 
  O5194    1.0000 0.73060  0.40589  0.72840  Biso   1.000  O 
  Ca1999   1.0000 0.62593  0.40589  0.74474  Biso   1.000  Ca
  P1199    1.0000 0.67119  0.40589  0.74155  Biso   1.000  P 
  O5195    1.0000 0.68322  0.40589  0.75677  Biso   1.000  O 
  O5196    1.0000 0.68573  0.40589  0.72767  Biso   1.000  O 
  Ca2000   1.0000 0.71922  0.40589  0.75984  Biso   1.000  Ca
  P1200    1.0000 0.57528  0.40589  0.73666  Biso   1.000  P 
  O5197    1.0000 0.55172  0.40589  0.73688  Biso   1.000  O 
  O5198    1.0000 0.58400  0.40589  0.75306  Biso   1.000  O 
  O5199    1.0000 0.62511  0.39938  0.71831  Biso   1.000  O 
  O5200    1.0000 0.62511  0.46187  0.71831  Biso   1.000  O 
  H399     1.0000 0.62511  0.37920  0.71831  Biso   1.000  H 
  H400     1.0000 0.62522  0.44169  0.71826  Biso   1.000  H 
  O5201    1.0000 0.73942  0.61585  0.26295  Biso   1.000  O 
  O5202    1.0000 0.59286  0.61585  0.26130  Biso   1.000  O 
  O5203    1.0000 0.66805  0.61585  0.27520  Biso   1.000  O 
  O5204    1.0000 0.63580  0.55335  0.25195  Biso   1.000  O 
  O5205    1.0000 0.53236  0.55335  0.25360  Biso   1.000  O 
  O5206    1.0000 0.70717  0.55335  0.23970  Biso   1.000  O 
  O5207    1.0000 0.63580  0.50842  0.25195  Biso   1.000  O 
  O5208    1.0000 0.53236  0.50842  0.25360  Biso   1.000  O 
  O5209    1.0000 0.70717  0.50842  0.23970  Biso   1.000  O 
  O5210    1.0000 0.73942  0.57093  0.26295  Biso   1.000  O 
  O5211    1.0000 0.59286  0.57093  0.26130  Biso   1.000  O 
  O5212    1.0000 0.66805  0.57093  0.27520  Biso   1.000  O 
  Ca2001   1.0000 0.66678  0.62445  0.23034  Biso   1.000  Ca
  Ca2002   1.0000 0.58344  0.56196  0.23035  Biso   1.000  Ca
  Ca2003   1.0000 0.58344  0.62482  0.23035  Biso   1.000  Ca
  Ca2004   1.0000 0.66678  0.56231  0.23034  Biso   1.000  Ca
  Ca2005   1.0000 0.72006  0.59338  0.24410  Biso   1.000  Ca
  P1201    1.0000 0.74636  0.59338  0.27194  Biso   1.000  P 
  O5213    1.0000 0.60984  0.59338  0.23317  Biso   1.000  O 
  O5214    1.0000 0.51963  0.59338  0.27447  Biso   1.000  O 
  Ca2006   1.0000 0.62429  0.59338  0.25813  Biso   1.000  Ca
  P1202    1.0000 0.57904  0.59338  0.26132  Biso   1.000  P 
  O5215    1.0000 0.56700  0.59338  0.24611  Biso   1.000  O 
  O5216    1.0000 0.56449  0.59338  0.27519  Biso   1.000  O 
  Ca2007   1.0000 0.53099  0.59338  0.24303  Biso   1.000  Ca
  P1203    1.0000 0.67495  0.59338  0.26620  Biso   1.000  P 
  O5217    1.0000 0.69850  0.59338  0.26598  Biso   1.000  O 
  O5218    1.0000 0.66622  0.59338  0.24980  Biso   1.000  O 
  Ca2008   1.0000 0.65518  0.53089  0.27081  Biso   1.000  Ca
  P1204    1.0000 0.62886  0.53089  0.24296  Biso   1.000  P 
  O5219    1.0000 0.51539  0.53089  0.28174  Biso   1.000  O 
  O5220    1.0000 0.60560  0.53089  0.24043  Biso   1.000  O 
  Ca2009   1.0000 0.50093  0.53089  0.25677  Biso   1.000  Ca
  P1205    1.0000 0.54619  0.53089  0.25359  Biso   1.000  P 
  O5221    1.0000 0.55822  0.53089  0.26880  Biso   1.000  O 
  O5222    1.0000 0.56073  0.53089  0.23971  Biso   1.000  O 
  Ca2010   1.0000 0.59422  0.53089  0.27188  Biso   1.000  Ca
  P1206    1.0000 0.70028  0.53089  0.24870  Biso   1.000  P 
  O5223    1.0000 0.67672  0.53089  0.24892  Biso   1.000  O 
  O5224    1.0000 0.70900  0.53089  0.26510  Biso   1.000  O 
  O5225    1.0000 0.50011  0.52438  0.23034  Biso   1.000  O 
  O5226    1.0000 0.50011  0.58687  0.23034  Biso   1.000  O 
  H401     1.0000 0.50011  0.50420  0.23034  Biso   1.000  H 
  H402     1.0000 0.50022  0.56669  0.23030  Biso   1.000  H 
  O5227    1.0000 0.61442  0.61585  0.31717  Biso   1.000  O 
  O5228    1.0000 0.71786  0.61585  0.31552  Biso   1.000  O 
  O5229    1.0000 0.54305  0.61585  0.32942  Biso   1.000  O 
  O5230    1.0000 0.51080  0.55335  0.30617  Biso   1.000  O 
  O5231    1.0000 0.65736  0.55335  0.30782  Biso   1.000  O 
  O5232    1.0000 0.58217  0.55335  0.29391  Biso   1.000  O 
  O5233    1.0000 0.51080  0.50842  0.30617  Biso   1.000  O 
  O5234    1.0000 0.65736  0.50842  0.30782  Biso   1.000  O 
  O5235    1.0000 0.58217  0.50842  0.29391  Biso   1.000  O 
  O5236    1.0000 0.61442  0.57093  0.31717  Biso   1.000  O 
  O5237    1.0000 0.71786  0.57093  0.31552  Biso   1.000  O 
  O5238    1.0000 0.54305  0.57093  0.32942  Biso   1.000  O 
  Ca2011   1.0000 0.54178  0.62445  0.28456  Biso   1.000  Ca
  Ca2012   1.0000 0.70844  0.56196  0.28456  Biso   1.000  Ca
  Ca2013   1.0000 0.70844  0.62482  0.28456  Biso   1.000  Ca
  Ca2014   1.0000 0.54178  0.56231  0.28456  Biso   1.000  Ca
  Ca2015   1.0000 0.59506  0.59338  0.29832  Biso   1.000  Ca
  P1207    1.0000 0.62136  0.59338  0.32616  Biso   1.000  P 
  O5239    1.0000 0.73484  0.59338  0.28738  Biso   1.000  O 
  O5240    1.0000 0.64463  0.59338  0.32869  Biso   1.000  O 
  Ca2016   1.0000 0.74929  0.59338  0.31234  Biso   1.000  Ca
  P1208    1.0000 0.70404  0.59338  0.31554  Biso   1.000  P 
  O5241    1.0000 0.69200  0.59338  0.30033  Biso   1.000  O 
  O5242    1.0000 0.68949  0.59338  0.32941  Biso   1.000  O 
  Ca2017   1.0000 0.65599  0.59338  0.29725  Biso   1.000  Ca
  P1209    1.0000 0.54995  0.59338  0.32042  Biso   1.000  P 
  O5243    1.0000 0.57350  0.59338  0.32020  Biso   1.000  O 
  O5244    1.0000 0.54122  0.59338  0.30402  Biso   1.000  O 
  Ca2018   1.0000 0.53018  0.53089  0.32502  Biso   1.000  Ca
  P1210    1.0000 0.50386  0.53089  0.29718  Biso   1.000  P 
  O5245    1.0000 0.64039  0.53089  0.33596  Biso   1.000  O 
  O5246    1.0000 0.73060  0.53089  0.29465  Biso   1.000  O 
  Ca2019   1.0000 0.62593  0.53089  0.31099  Biso   1.000  Ca
  P1211    1.0000 0.67119  0.53089  0.30781  Biso   1.000  P 
  O5247    1.0000 0.68322  0.53089  0.32302  Biso   1.000  O 
  O5248    1.0000 0.68573  0.53089  0.29393  Biso   1.000  O 
  Ca2020   1.0000 0.71922  0.53089  0.32610  Biso   1.000  Ca
  P1212    1.0000 0.57528  0.53089  0.30291  Biso   1.000  P 
  O5249    1.0000 0.55172  0.53089  0.30314  Biso   1.000  O 
  O5250    1.0000 0.58400  0.53089  0.31932  Biso   1.000  O 
  O5251    1.0000 0.62511  0.52438  0.28456  Biso   1.000  O 
  O5252    1.0000 0.62511  0.58687  0.28456  Biso   1.000  O 
  H403     1.0000 0.62511  0.50420  0.28456  Biso   1.000  H 
  H404     1.0000 0.62522  0.56669  0.28452  Biso   1.000  H 
  O5253    1.0000 0.73942  0.61585  0.37139  Biso   1.000  O 
  O5254    1.0000 0.59286  0.61585  0.36974  Biso   1.000  O 
  O5255    1.0000 0.66805  0.61585  0.38364  Biso   1.000  O 
  O5256    1.0000 0.63580  0.55335  0.36038  Biso   1.000  O 
  O5257    1.0000 0.53236  0.55335  0.36204  Biso   1.000  O 
  O5258    1.0000 0.70717  0.55335  0.34813  Biso   1.000  O 
  O5259    1.0000 0.63580  0.50842  0.36038  Biso   1.000  O 
  O5260    1.0000 0.53236  0.50842  0.36204  Biso   1.000  O 
  O5261    1.0000 0.70717  0.50842  0.34813  Biso   1.000  O 
  O5262    1.0000 0.73942  0.57093  0.37139  Biso   1.000  O 
  O5263    1.0000 0.59286  0.57093  0.36974  Biso   1.000  O 
  O5264    1.0000 0.66805  0.57093  0.38364  Biso   1.000  O 
  Ca2021   1.0000 0.66678  0.62445  0.33877  Biso   1.000  Ca
  Ca2022   1.0000 0.58344  0.56196  0.33878  Biso   1.000  Ca
  Ca2023   1.0000 0.58344  0.62482  0.33878  Biso   1.000  Ca
  Ca2024   1.0000 0.66678  0.56231  0.33877  Biso   1.000  Ca
  Ca2025   1.0000 0.72006  0.59338  0.35254  Biso   1.000  Ca
  P1213    1.0000 0.74636  0.59338  0.38038  Biso   1.000  P 
  O5265    1.0000 0.60984  0.59338  0.34160  Biso   1.000  O 
  O5266    1.0000 0.51963  0.59338  0.38291  Biso   1.000  O 
  Ca2026   1.0000 0.62429  0.59338  0.36656  Biso   1.000  Ca
  P1214    1.0000 0.57904  0.59338  0.36975  Biso   1.000  P 
  O5267    1.0000 0.56700  0.59338  0.35454  Biso   1.000  O 
  O5268    1.0000 0.56449  0.59338  0.38362  Biso   1.000  O 
  Ca2027   1.0000 0.53099  0.59338  0.35146  Biso   1.000  Ca
  P1215    1.0000 0.67495  0.59338  0.37464  Biso   1.000  P 
  O5269    1.0000 0.69850  0.59338  0.37442  Biso   1.000  O 
  O5270    1.0000 0.66622  0.59338  0.35824  Biso   1.000  O 
  Ca2028   1.0000 0.65518  0.53089  0.37924  Biso   1.000  Ca
  P1216    1.0000 0.62886  0.53089  0.35140  Biso   1.000  P 
  O5271    1.0000 0.51539  0.53089  0.39018  Biso   1.000  O 
  O5272    1.0000 0.60560  0.53089  0.34887  Biso   1.000  O 
  Ca2029   1.0000 0.50093  0.53089  0.36521  Biso   1.000  Ca
  P1217    1.0000 0.54619  0.53089  0.36203  Biso   1.000  P 
  O5273    1.0000 0.55822  0.53089  0.37724  Biso   1.000  O 
  O5274    1.0000 0.56073  0.53089  0.34815  Biso   1.000  O 
  Ca2030   1.0000 0.59422  0.53089  0.38032  Biso   1.000  Ca
  P1218    1.0000 0.70028  0.53089  0.35713  Biso   1.000  P 
  O5275    1.0000 0.67672  0.53089  0.35736  Biso   1.000  O 
  O5276    1.0000 0.70900  0.53089  0.37353  Biso   1.000  O 
  O5277    1.0000 0.50011  0.52438  0.33878  Biso   1.000  O 
  O5278    1.0000 0.50011  0.58687  0.33878  Biso   1.000  O 
  H405     1.0000 0.50011  0.50420  0.33878  Biso   1.000  H 
  H406     1.0000 0.50022  0.56669  0.33873  Biso   1.000  H 
  O5279    1.0000 0.61442  0.61585  0.42561  Biso   1.000  O 
  O5280    1.0000 0.71786  0.61585  0.42395  Biso   1.000  O 
  O5281    1.0000 0.54305  0.61585  0.43786  Biso   1.000  O 
  O5282    1.0000 0.51080  0.55335  0.41460  Biso   1.000  O 
  O5283    1.0000 0.65736  0.55335  0.41625  Biso   1.000  O 
  O5284    1.0000 0.58217  0.55335  0.40235  Biso   1.000  O 
  O5285    1.0000 0.51080  0.50842  0.41460  Biso   1.000  O 
  O5286    1.0000 0.65736  0.50842  0.41625  Biso   1.000  O 
  O5287    1.0000 0.58217  0.50842  0.40235  Biso   1.000  O 
  O5288    1.0000 0.61442  0.57093  0.42561  Biso   1.000  O 
  O5289    1.0000 0.71786  0.57093  0.42395  Biso   1.000  O 
  O5290    1.0000 0.54305  0.57093  0.43786  Biso   1.000  O 
  Ca2031   1.0000 0.54178  0.62445  0.39299  Biso   1.000  Ca
  Ca2032   1.0000 0.70844  0.56196  0.39300  Biso   1.000  Ca
  Ca2033   1.0000 0.70844  0.62482  0.39300  Biso   1.000  Ca
  Ca2034   1.0000 0.54178  0.56231  0.39299  Biso   1.000  Ca
  Ca2035   1.0000 0.59506  0.59338  0.40675  Biso   1.000  Ca
  P1219    1.0000 0.62136  0.59338  0.43460  Biso   1.000  P 
  O5291    1.0000 0.73484  0.59338  0.39582  Biso   1.000  O 
  O5292    1.0000 0.64463  0.59338  0.43713  Biso   1.000  O 
  Ca2036   1.0000 0.74929  0.59338  0.42078  Biso   1.000  Ca
  P1220    1.0000 0.70404  0.59338  0.42397  Biso   1.000  P 
  O5293    1.0000 0.69200  0.59338  0.40876  Biso   1.000  O 
  O5294    1.0000 0.68949  0.59338  0.43784  Biso   1.000  O 
  Ca2037   1.0000 0.65599  0.59338  0.40568  Biso   1.000  Ca
  P1221    1.0000 0.54995  0.59338  0.42886  Biso   1.000  P 
  O5295    1.0000 0.57350  0.59338  0.42864  Biso   1.000  O 
  O5296    1.0000 0.54122  0.59338  0.41246  Biso   1.000  O 
  Ca2038   1.0000 0.53018  0.53089  0.43346  Biso   1.000  Ca
  P1222    1.0000 0.50386  0.53089  0.40561  Biso   1.000  P 
  O5297    1.0000 0.64039  0.53089  0.44439  Biso   1.000  O 
  O5298    1.0000 0.73060  0.53089  0.40309  Biso   1.000  O 
  Ca2039   1.0000 0.62593  0.53089  0.41943  Biso   1.000  Ca
  P1223    1.0000 0.67119  0.53089  0.41624  Biso   1.000  P 
  O5299    1.0000 0.68322  0.53089  0.43146  Biso   1.000  O 
  O5300    1.0000 0.68573  0.53089  0.40237  Biso   1.000  O 
  Ca2040   1.0000 0.71922  0.53089  0.43454  Biso   1.000  Ca
  P1224    1.0000 0.57528  0.53089  0.41135  Biso   1.000  P 
  O5301    1.0000 0.55172  0.53089  0.41157  Biso   1.000  O 
  O5302    1.0000 0.58400  0.53089  0.42775  Biso   1.000  O 
  O5303    1.0000 0.62511  0.52438  0.39300  Biso   1.000  O 
  O5304    1.0000 0.62511  0.58687  0.39300  Biso   1.000  O 
  H407     1.0000 0.62511  0.50420  0.39300  Biso   1.000  H 
  H408     1.0000 0.62522  0.56669  0.39295  Biso   1.000  H 
  O5305    1.0000 0.73942  0.61585  0.47982  Biso   1.000  O 
  O5306    1.0000 0.59286  0.61585  0.47817  Biso   1.000  O 
  O5307    1.0000 0.66805  0.61585  0.49208  Biso   1.000  O 
  O5308    1.0000 0.63580  0.55335  0.46882  Biso   1.000  O 
  O5309    1.0000 0.53236  0.55335  0.47047  Biso   1.000  O 
  O5310    1.0000 0.70717  0.55335  0.45657  Biso   1.000  O 
  O5311    1.0000 0.63580  0.50842  0.46882  Biso   1.000  O 
  O5312    1.0000 0.53236  0.50842  0.47047  Biso   1.000  O 
  O5313    1.0000 0.70717  0.50842  0.45657  Biso   1.000  O 
  O5314    1.0000 0.73942  0.57093  0.47982  Biso   1.000  O 
  O5315    1.0000 0.59286  0.57093  0.47817  Biso   1.000  O 
  O5316    1.0000 0.66805  0.57093  0.49208  Biso   1.000  O 
  Ca2041   1.0000 0.66678  0.62445  0.44721  Biso   1.000  Ca
  Ca2042   1.0000 0.58344  0.56196  0.44722  Biso   1.000  Ca
  Ca2043   1.0000 0.58344  0.62482  0.44722  Biso   1.000  Ca
  Ca2044   1.0000 0.66678  0.56231  0.44721  Biso   1.000  Ca
  Ca2045   1.0000 0.72006  0.59338  0.46097  Biso   1.000  Ca
  P1225    1.0000 0.74636  0.59338  0.48881  Biso   1.000  P 
  O5317    1.0000 0.60984  0.59338  0.45004  Biso   1.000  O 
  O5318    1.0000 0.51963  0.59338  0.49134  Biso   1.000  O 
  Ca2046   1.0000 0.62429  0.59338  0.47500  Biso   1.000  Ca
  P1226    1.0000 0.57904  0.59338  0.47819  Biso   1.000  P 
  O5319    1.0000 0.56700  0.59338  0.46298  Biso   1.000  O 
  O5320    1.0000 0.56449  0.59338  0.49206  Biso   1.000  O 
  Ca2047   1.0000 0.53099  0.59338  0.45990  Biso   1.000  Ca
  P1227    1.0000 0.67495  0.59338  0.48308  Biso   1.000  P 
  O5321    1.0000 0.69850  0.59338  0.48285  Biso   1.000  O 
  O5322    1.0000 0.66622  0.59338  0.46667  Biso   1.000  O 
  Ca2048   1.0000 0.65518  0.53089  0.48768  Biso   1.000  Ca
  P1228    1.0000 0.62886  0.53089  0.45983  Biso   1.000  P 
  O5323    1.0000 0.51539  0.53089  0.49861  Biso   1.000  O 
  O5324    1.0000 0.60560  0.53089  0.45731  Biso   1.000  O 
  Ca2049   1.0000 0.50093  0.53089  0.47365  Biso   1.000  Ca
  P1229    1.0000 0.54619  0.53089  0.47046  Biso   1.000  P 
  O5325    1.0000 0.55822  0.53089  0.48568  Biso   1.000  O 
  O5326    1.0000 0.56073  0.53089  0.45658  Biso   1.000  O 
  Ca2050   1.0000 0.59422  0.53089  0.48875  Biso   1.000  Ca
  P1230    1.0000 0.70028  0.53089  0.46557  Biso   1.000  P 
  O5327    1.0000 0.67672  0.53089  0.46579  Biso   1.000  O 
  O5328    1.0000 0.70900  0.53089  0.48197  Biso   1.000  O 
  O5329    1.0000 0.50011  0.52438  0.44722  Biso   1.000  O 
  O5330    1.0000 0.50011  0.58687  0.44722  Biso   1.000  O 
  H409     1.0000 0.50011  0.50420  0.44722  Biso   1.000  H 
  H410     1.0000 0.50022  0.56669  0.44717  Biso   1.000  H 
  O5331    1.0000 0.61442  0.61585  0.53404  Biso   1.000  O 
  O5332    1.0000 0.71786  0.61585  0.53239  Biso   1.000  O 
  O5333    1.0000 0.54305  0.61585  0.54629  Biso   1.000  O 
  O5334    1.0000 0.51080  0.55335  0.52304  Biso   1.000  O 
  O5335    1.0000 0.65736  0.55335  0.52469  Biso   1.000  O 
  O5336    1.0000 0.58217  0.55335  0.51079  Biso   1.000  O 
  O5337    1.0000 0.51080  0.50842  0.52304  Biso   1.000  O 
  O5338    1.0000 0.65736  0.50842  0.52469  Biso   1.000  O 
  O5339    1.0000 0.58217  0.50842  0.51079  Biso   1.000  O 
  O5340    1.0000 0.61442  0.57093  0.53404  Biso   1.000  O 
  O5341    1.0000 0.71786  0.57093  0.53239  Biso   1.000  O 
  O5342    1.0000 0.54305  0.57093  0.54629  Biso   1.000  O 
  Ca2051   1.0000 0.54178  0.62445  0.50143  Biso   1.000  Ca
  Ca2052   1.0000 0.70844  0.56196  0.50144  Biso   1.000  Ca
  Ca2053   1.0000 0.70844  0.62482  0.50144  Biso   1.000  Ca
  Ca2054   1.0000 0.54178  0.56231  0.50143  Biso   1.000  Ca
  Ca2055   1.0000 0.59506  0.59338  0.51519  Biso   1.000  Ca
  P1231    1.0000 0.62136  0.59338  0.54303  Biso   1.000  P 
  O5343    1.0000 0.73484  0.59338  0.50426  Biso   1.000  O 
  O5344    1.0000 0.64463  0.59338  0.54556  Biso   1.000  O 
  Ca2056   1.0000 0.74929  0.59338  0.52922  Biso   1.000  Ca
  P1232    1.0000 0.70404  0.59338  0.53241  Biso   1.000  P 
  O5345    1.0000 0.69200  0.59338  0.51720  Biso   1.000  O 
  O5346    1.0000 0.68949  0.59338  0.54628  Biso   1.000  O 
  Ca2057   1.0000 0.65599  0.59338  0.51412  Biso   1.000  Ca
  P1233    1.0000 0.54995  0.59338  0.53729  Biso   1.000  P 
  O5347    1.0000 0.57350  0.59338  0.53707  Biso   1.000  O 
  O5348    1.0000 0.54122  0.59338  0.52089  Biso   1.000  O 
  Ca2058   1.0000 0.53018  0.53089  0.54190  Biso   1.000  Ca
  P1234    1.0000 0.50386  0.53089  0.51405  Biso   1.000  P 
  O5349    1.0000 0.64039  0.53089  0.55283  Biso   1.000  O 
  O5350    1.0000 0.73060  0.53089  0.51152  Biso   1.000  O 
  Ca2059   1.0000 0.62593  0.53089  0.52786  Biso   1.000  Ca
  P1235    1.0000 0.67119  0.53089  0.52468  Biso   1.000  P 
  O5351    1.0000 0.68322  0.53089  0.53989  Biso   1.000  O 
  O5352    1.0000 0.68573  0.53089  0.51080  Biso   1.000  O 
  Ca2060   1.0000 0.71922  0.53089  0.54297  Biso   1.000  Ca
  P1236    1.0000 0.57528  0.53089  0.51979  Biso   1.000  P 
  O5353    1.0000 0.55172  0.53089  0.52001  Biso   1.000  O 
  O5354    1.0000 0.58400  0.53089  0.53619  Biso   1.000  O 
  O5355    1.0000 0.62511  0.52438  0.50143  Biso   1.000  O 
  O5356    1.0000 0.62511  0.58687  0.50143  Biso   1.000  O 
  H411     1.0000 0.62511  0.50420  0.50143  Biso   1.000  H 
  H412     1.0000 0.62522  0.56669  0.50139  Biso   1.000  H 
  O5357    1.0000 0.73942  0.61585  0.58826  Biso   1.000  O 
  O5358    1.0000 0.59286  0.61585  0.58661  Biso   1.000  O 
  O5359    1.0000 0.66805  0.61585  0.60051  Biso   1.000  O 
  O5360    1.0000 0.63580  0.55335  0.57726  Biso   1.000  O 
  O5361    1.0000 0.53236  0.55335  0.57891  Biso   1.000  O 
  O5362    1.0000 0.70717  0.55335  0.56500  Biso   1.000  O 
  O5363    1.0000 0.63580  0.50842  0.57726  Biso   1.000  O 
  O5364    1.0000 0.53236  0.50842  0.57891  Biso   1.000  O 
  O5365    1.0000 0.70717  0.50842  0.56500  Biso   1.000  O 
  O5366    1.0000 0.73942  0.57093  0.58826  Biso   1.000  O 
  O5367    1.0000 0.59286  0.57093  0.58661  Biso   1.000  O 
  O5368    1.0000 0.66805  0.57093  0.60051  Biso   1.000  O 
  Ca2061   1.0000 0.66678  0.62445  0.55565  Biso   1.000  Ca
  Ca2062   1.0000 0.58344  0.56196  0.55565  Biso   1.000  Ca
  Ca2063   1.0000 0.58344  0.62482  0.55565  Biso   1.000  Ca
  Ca2064   1.0000 0.66678  0.56231  0.55565  Biso   1.000  Ca
  Ca2065   1.0000 0.72006  0.59338  0.56941  Biso   1.000  Ca
  P1237    1.0000 0.74636  0.59338  0.59725  Biso   1.000  P 
  O5369    1.0000 0.60984  0.59338  0.55847  Biso   1.000  O 
  O5370    1.0000 0.51963  0.59338  0.59978  Biso   1.000  O 
  Ca2066   1.0000 0.62429  0.59338  0.58343  Biso   1.000  Ca
  P1238    1.0000 0.57904  0.59338  0.58662  Biso   1.000  P 
  O5371    1.0000 0.56700  0.59338  0.57141  Biso   1.000  O 
  O5372    1.0000 0.56449  0.59338  0.60050  Biso   1.000  O 
  Ca2067   1.0000 0.53099  0.59338  0.56834  Biso   1.000  Ca
  P1239    1.0000 0.67495  0.59338  0.59151  Biso   1.000  P 
  O5373    1.0000 0.69850  0.59338  0.59129  Biso   1.000  O 
  O5374    1.0000 0.66622  0.59338  0.57511  Biso   1.000  O 
  Ca2068   1.0000 0.65518  0.53089  0.59611  Biso   1.000  Ca
  P1240    1.0000 0.62886  0.53089  0.56827  Biso   1.000  P 
  O5375    1.0000 0.51539  0.53089  0.60705  Biso   1.000  O 
  O5376    1.0000 0.60560  0.53089  0.56574  Biso   1.000  O 
  Ca2069   1.0000 0.50093  0.53089  0.58208  Biso   1.000  Ca
  P1241    1.0000 0.54619  0.53089  0.57890  Biso   1.000  P 
  O5377    1.0000 0.55822  0.53089  0.59411  Biso   1.000  O 
  O5378    1.0000 0.56073  0.53089  0.56502  Biso   1.000  O 
  Ca2070   1.0000 0.59422  0.53089  0.59719  Biso   1.000  Ca
  P1242    1.0000 0.70028  0.53089  0.57400  Biso   1.000  P 
  O5379    1.0000 0.67672  0.53089  0.57423  Biso   1.000  O 
  O5380    1.0000 0.70900  0.53089  0.59041  Biso   1.000  O 
  O5381    1.0000 0.50011  0.52438  0.55565  Biso   1.000  O 
  O5382    1.0000 0.50011  0.58687  0.55565  Biso   1.000  O 
  H413     1.0000 0.50011  0.50420  0.55565  Biso   1.000  H 
  H414     1.0000 0.50022  0.56669  0.55561  Biso   1.000  H 
  O5383    1.0000 0.61442  0.61585  0.64248  Biso   1.000  O 
  O5384    1.0000 0.71786  0.61585  0.64083  Biso   1.000  O 
  O5385    1.0000 0.54305  0.61585  0.65473  Biso   1.000  O 
  O5386    1.0000 0.51080  0.55335  0.63147  Biso   1.000  O 
  O5387    1.0000 0.65736  0.55335  0.63313  Biso   1.000  O 
  O5388    1.0000 0.58217  0.55335  0.61922  Biso   1.000  O 
  O5389    1.0000 0.51080  0.50842  0.63147  Biso   1.000  O 
  O5390    1.0000 0.65736  0.50842  0.63313  Biso   1.000  O 
  O5391    1.0000 0.58217  0.50842  0.61922  Biso   1.000  O 
  O5392    1.0000 0.61442  0.57093  0.64248  Biso   1.000  O 
  O5393    1.0000 0.71786  0.57093  0.64083  Biso   1.000  O 
  O5394    1.0000 0.54305  0.57093  0.65473  Biso   1.000  O 
  Ca2071   1.0000 0.54178  0.62445  0.60986  Biso   1.000  Ca
  Ca2072   1.0000 0.70844  0.56196  0.60987  Biso   1.000  Ca
  Ca2073   1.0000 0.70844  0.62482  0.60987  Biso   1.000  Ca
  Ca2074   1.0000 0.54178  0.56231  0.60986  Biso   1.000  Ca
  Ca2075   1.0000 0.59506  0.59338  0.62363  Biso   1.000  Ca
  P1243    1.0000 0.62136  0.59338  0.65147  Biso   1.000  P 
  O5395    1.0000 0.73484  0.59338  0.61269  Biso   1.000  O 
  O5396    1.0000 0.64463  0.59338  0.65400  Biso   1.000  O 
  Ca2076   1.0000 0.74929  0.59338  0.63765  Biso   1.000  Ca
  P1244    1.0000 0.70404  0.59338  0.64084  Biso   1.000  P 
  O5397    1.0000 0.69200  0.59338  0.62563  Biso   1.000  O 
  O5398    1.0000 0.68949  0.59338  0.65471  Biso   1.000  O 
  Ca2077   1.0000 0.65599  0.59338  0.62255  Biso   1.000  Ca
  P1245    1.0000 0.54995  0.59338  0.64573  Biso   1.000  P 
  O5399    1.0000 0.57350  0.59338  0.64551  Biso   1.000  O 
  O5400    1.0000 0.54122  0.59338  0.62933  Biso   1.000  O 
  Ca2078   1.0000 0.53018  0.53089  0.65033  Biso   1.000  Ca
  P1246    1.0000 0.50386  0.53089  0.62248  Biso   1.000  P 
  O5401    1.0000 0.64039  0.53089  0.66127  Biso   1.000  O 
  O5402    1.0000 0.73060  0.53089  0.61996  Biso   1.000  O 
  Ca2079   1.0000 0.62593  0.53089  0.63630  Biso   1.000  Ca
  P1247    1.0000 0.67119  0.53089  0.63312  Biso   1.000  P 
  O5403    1.0000 0.68322  0.53089  0.64833  Biso   1.000  O 
  O5404    1.0000 0.68573  0.53089  0.61924  Biso   1.000  O 
  Ca2080   1.0000 0.71922  0.53089  0.65141  Biso   1.000  Ca
  P1248    1.0000 0.57528  0.53089  0.62822  Biso   1.000  P 
  O5405    1.0000 0.55172  0.53089  0.62845  Biso   1.000  O 
  O5406    1.0000 0.58400  0.53089  0.64462  Biso   1.000  O 
  O5407    1.0000 0.62511  0.52438  0.60987  Biso   1.000  O 
  O5408    1.0000 0.62511  0.58687  0.60987  Biso   1.000  O 
  H415     1.0000 0.62511  0.50420  0.60987  Biso   1.000  H 
  H416     1.0000 0.62522  0.56669  0.60982  Biso   1.000  H 
  O5409    1.0000 0.73942  0.61585  0.69670  Biso   1.000  O 
  O5410    1.0000 0.59286  0.61585  0.69504  Biso   1.000  O 
  O5411    1.0000 0.66805  0.61585  0.70895  Biso   1.000  O 
  O5412    1.0000 0.63580  0.55335  0.68569  Biso   1.000  O 
  O5413    1.0000 0.53236  0.55335  0.68734  Biso   1.000  O 
  O5414    1.0000 0.70717  0.55335  0.67344  Biso   1.000  O 
  O5415    1.0000 0.63580  0.50842  0.68569  Biso   1.000  O 
  O5416    1.0000 0.53236  0.50842  0.68734  Biso   1.000  O 
  O5417    1.0000 0.70717  0.50842  0.67344  Biso   1.000  O 
  O5418    1.0000 0.73942  0.57093  0.69670  Biso   1.000  O 
  O5419    1.0000 0.59286  0.57093  0.69504  Biso   1.000  O 
  O5420    1.0000 0.66805  0.57093  0.70895  Biso   1.000  O 
  Ca2081   1.0000 0.66678  0.62445  0.66408  Biso   1.000  Ca
  Ca2082   1.0000 0.58344  0.56196  0.66409  Biso   1.000  Ca
  Ca2083   1.0000 0.58344  0.62482  0.66409  Biso   1.000  Ca
  Ca2084   1.0000 0.66678  0.56231  0.66408  Biso   1.000  Ca
  Ca2085   1.0000 0.72006  0.59338  0.67784  Biso   1.000  Ca
  P1249    1.0000 0.74636  0.59338  0.70569  Biso   1.000  P 
  O5421    1.0000 0.60984  0.59338  0.66691  Biso   1.000  O 
  O5422    1.0000 0.51963  0.59338  0.70822  Biso   1.000  O 
  Ca2086   1.0000 0.62429  0.59338  0.69187  Biso   1.000  Ca
  P1250    1.0000 0.57904  0.59338  0.69506  Biso   1.000  P 
  O5423    1.0000 0.56700  0.59338  0.67985  Biso   1.000  O 
  O5424    1.0000 0.56449  0.59338  0.70893  Biso   1.000  O 
  Ca2087   1.0000 0.53099  0.59338  0.67677  Biso   1.000  Ca
  P1251    1.0000 0.67495  0.59338  0.69995  Biso   1.000  P 
  O5425    1.0000 0.69850  0.59338  0.69973  Biso   1.000  O 
  O5426    1.0000 0.66622  0.59338  0.68355  Biso   1.000  O 
  Ca2088   1.0000 0.65518  0.53089  0.70455  Biso   1.000  Ca
  P1252    1.0000 0.62886  0.53089  0.67670  Biso   1.000  P 
  O5427    1.0000 0.51539  0.53089  0.71548  Biso   1.000  O 
  O5428    1.0000 0.60560  0.53089  0.67418  Biso   1.000  O 
  Ca2089   1.0000 0.50093  0.53089  0.69052  Biso   1.000  Ca
  P1253    1.0000 0.54619  0.53089  0.68733  Biso   1.000  P 
  O5429    1.0000 0.55822  0.53089  0.70255  Biso   1.000  O 
  O5430    1.0000 0.56073  0.53089  0.67346  Biso   1.000  O 
  Ca2090   1.0000 0.59422  0.53089  0.70563  Biso   1.000  Ca
  P1254    1.0000 0.70028  0.53089  0.68244  Biso   1.000  P 
  O5431    1.0000 0.67672  0.53089  0.68266  Biso   1.000  O 
  O5432    1.0000 0.70900  0.53089  0.69884  Biso   1.000  O 
  O5433    1.0000 0.50011  0.52438  0.66409  Biso   1.000  O 
  O5434    1.0000 0.50011  0.58687  0.66409  Biso   1.000  O 
  H417     1.0000 0.50011  0.50420  0.66409  Biso   1.000  H 
  H418     1.0000 0.50022  0.56669  0.66404  Biso   1.000  H 
  O5435    1.0000 0.61442  0.61585  0.75091  Biso   1.000  O 
  O5436    1.0000 0.71786  0.61585  0.74926  Biso   1.000  O 
  O5437    1.0000 0.54305  0.61585  0.76317  Biso   1.000  O 
  O5438    1.0000 0.51080  0.55335  0.73991  Biso   1.000  O 
  O5439    1.0000 0.65736  0.55335  0.74156  Biso   1.000  O 
  O5440    1.0000 0.58217  0.55335  0.72766  Biso   1.000  O 
  O5441    1.0000 0.51080  0.50842  0.73991  Biso   1.000  O 
  O5442    1.0000 0.65736  0.50842  0.74156  Biso   1.000  O 
  O5443    1.0000 0.58217  0.50842  0.72766  Biso   1.000  O 
  O5444    1.0000 0.61442  0.57093  0.75091  Biso   1.000  O 
  O5445    1.0000 0.71786  0.57093  0.74926  Biso   1.000  O 
  O5446    1.0000 0.54305  0.57093  0.76317  Biso   1.000  O 
  Ca2091   1.0000 0.54178  0.62445  0.71830  Biso   1.000  Ca
  Ca2092   1.0000 0.70844  0.56196  0.71831  Biso   1.000  Ca
  Ca2093   1.0000 0.70844  0.62482  0.71831  Biso   1.000  Ca
  Ca2094   1.0000 0.54178  0.56231  0.71830  Biso   1.000  Ca
  Ca2095   1.0000 0.59506  0.59338  0.73206  Biso   1.000  Ca
  P1255    1.0000 0.62136  0.59338  0.75990  Biso   1.000  P 
  O5447    1.0000 0.73484  0.59338  0.72113  Biso   1.000  O 
  O5448    1.0000 0.64463  0.59338  0.76243  Biso   1.000  O 
  Ca2096   1.0000 0.74929  0.59338  0.74609  Biso   1.000  Ca
  P1256    1.0000 0.70404  0.59338  0.74928  Biso   1.000  P 
  O5449    1.0000 0.69200  0.59338  0.73407  Biso   1.000  O 
  O5450    1.0000 0.68949  0.59338  0.76315  Biso   1.000  O 
  Ca2097   1.0000 0.65599  0.59338  0.73099  Biso   1.000  Ca
  P1257    1.0000 0.54995  0.59338  0.75417  Biso   1.000  P 
  O5451    1.0000 0.57350  0.59338  0.75394  Biso   1.000  O 
  O5452    1.0000 0.54122  0.59338  0.73776  Biso   1.000  O 
  Ca2098   1.0000 0.53018  0.53089  0.75877  Biso   1.000  Ca
  P1258    1.0000 0.50386  0.53089  0.73092  Biso   1.000  P 
  O5453    1.0000 0.64039  0.53089  0.76970  Biso   1.000  O 
  O5454    1.0000 0.73060  0.53089  0.72840  Biso   1.000  O 
  Ca2099   1.0000 0.62593  0.53089  0.74474  Biso   1.000  Ca
  P1259    1.0000 0.67119  0.53089  0.74155  Biso   1.000  P 
  O5455    1.0000 0.68322  0.53089  0.75677  Biso   1.000  O 
  O5456    1.0000 0.68573  0.53089  0.72767  Biso   1.000  O 
  Ca2100   1.0000 0.71922  0.53089  0.75984  Biso   1.000  Ca
  P1260    1.0000 0.57528  0.53089  0.73666  Biso   1.000  P 
  O5457    1.0000 0.55172  0.53089  0.73688  Biso   1.000  O 
  O5458    1.0000 0.58400  0.53089  0.75306  Biso   1.000  O 
  O5459    1.0000 0.62511  0.52438  0.71831  Biso   1.000  O 
  O5460    1.0000 0.62511  0.58687  0.71831  Biso   1.000  O 
  H419     1.0000 0.62511  0.50420  0.71831  Biso   1.000  H 
  H420     1.0000 0.62522  0.56669  0.71826  Biso   1.000  H 
  O5461    1.0000 0.73942  0.74085  0.26295  Biso   1.000  O 
  O5462    1.0000 0.59286  0.74085  0.26130  Biso   1.000  O 
  O5463    1.0000 0.66805  0.74085  0.27520  Biso   1.000  O 
  O5464    1.0000 0.63580  0.67835  0.25195  Biso   1.000  O 
  O5465    1.0000 0.53236  0.67835  0.25360  Biso   1.000  O 
  O5466    1.0000 0.70717  0.67835  0.23970  Biso   1.000  O 
  O5467    1.0000 0.63580  0.63342  0.25195  Biso   1.000  O 
  O5468    1.0000 0.53236  0.63342  0.25360  Biso   1.000  O 
  O5469    1.0000 0.70717  0.63342  0.23970  Biso   1.000  O 
  O5470    1.0000 0.73942  0.69593  0.26295  Biso   1.000  O 
  O5471    1.0000 0.59286  0.69593  0.26130  Biso   1.000  O 
  O5472    1.0000 0.66805  0.69593  0.27520  Biso   1.000  O 
  Ca2101   1.0000 0.66678  0.74945  0.23034  Biso   1.000  Ca
  Ca2102   1.0000 0.58344  0.68696  0.23035  Biso   1.000  Ca
  Ca2103   1.0000 0.58344  0.74982  0.23035  Biso   1.000  Ca
  Ca2104   1.0000 0.66678  0.68731  0.23034  Biso   1.000  Ca
  Ca2105   1.0000 0.72006  0.71838  0.24410  Biso   1.000  Ca
  P1261    1.0000 0.74636  0.71838  0.27194  Biso   1.000  P 
  O5473    1.0000 0.60984  0.71838  0.23317  Biso   1.000  O 
  O5474    1.0000 0.51963  0.71838  0.27447  Biso   1.000  O 
  Ca2106   1.0000 0.62429  0.71838  0.25813  Biso   1.000  Ca
  P1262    1.0000 0.57904  0.71838  0.26132  Biso   1.000  P 
  O5475    1.0000 0.56700  0.71838  0.24611  Biso   1.000  O 
  O5476    1.0000 0.56449  0.71838  0.27519  Biso   1.000  O 
  Ca2107   1.0000 0.53099  0.71838  0.24303  Biso   1.000  Ca
  P1263    1.0000 0.67495  0.71838  0.26620  Biso   1.000  P 
  O5477    1.0000 0.69850  0.71838  0.26598  Biso   1.000  O 
  O5478    1.0000 0.66622  0.71838  0.24980  Biso   1.000  O 
  Ca2108   1.0000 0.65518  0.65589  0.27081  Biso   1.000  Ca
  P1264    1.0000 0.62886  0.65589  0.24296  Biso   1.000  P 
  O5479    1.0000 0.51539  0.65589  0.28174  Biso   1.000  O 
  O5480    1.0000 0.60560  0.65589  0.24043  Biso   1.000  O 
  Ca2109   1.0000 0.50093  0.65589  0.25677  Biso   1.000  Ca
  P1265    1.0000 0.54619  0.65589  0.25359  Biso   1.000  P 
  O5481    1.0000 0.55822  0.65589  0.26880  Biso   1.000  O 
  O5482    1.0000 0.56073  0.65589  0.23971  Biso   1.000  O 
  Ca2110   1.0000 0.59422  0.65589  0.27188  Biso   1.000  Ca
  P1266    1.0000 0.70028  0.65589  0.24870  Biso   1.000  P 
  O5483    1.0000 0.67672  0.65589  0.24892  Biso   1.000  O 
  O5484    1.0000 0.70900  0.65589  0.26510  Biso   1.000  O 
  O5485    1.0000 0.50011  0.64938  0.23034  Biso   1.000  O 
  O5486    1.0000 0.50011  0.71187  0.23034  Biso   1.000  O 
  H421     1.0000 0.50011  0.62920  0.23034  Biso   1.000  H 
  H422     1.0000 0.50022  0.69169  0.23030  Biso   1.000  H 
  O5487    1.0000 0.61442  0.74085  0.31717  Biso   1.000  O 
  O5488    1.0000 0.71786  0.74085  0.31552  Biso   1.000  O 
  O5489    1.0000 0.54305  0.74085  0.32942  Biso   1.000  O 
  O5490    1.0000 0.51080  0.67835  0.30617  Biso   1.000  O 
  O5491    1.0000 0.65736  0.67835  0.30782  Biso   1.000  O 
  O5492    1.0000 0.58217  0.67835  0.29391  Biso   1.000  O 
  O5493    1.0000 0.51080  0.63342  0.30617  Biso   1.000  O 
  O5494    1.0000 0.65736  0.63342  0.30782  Biso   1.000  O 
  O5495    1.0000 0.58217  0.63342  0.29391  Biso   1.000  O 
  O5496    1.0000 0.61442  0.69593  0.31717  Biso   1.000  O 
  O5497    1.0000 0.71786  0.69593  0.31552  Biso   1.000  O 
  O5498    1.0000 0.54305  0.69593  0.32942  Biso   1.000  O 
  Ca2111   1.0000 0.54178  0.74945  0.28456  Biso   1.000  Ca
  Ca2112   1.0000 0.70844  0.68696  0.28456  Biso   1.000  Ca
  Ca2113   1.0000 0.70844  0.74982  0.28456  Biso   1.000  Ca
  Ca2114   1.0000 0.54178  0.68731  0.28456  Biso   1.000  Ca
  Ca2115   1.0000 0.59506  0.71838  0.29832  Biso   1.000  Ca
  P1267    1.0000 0.62136  0.71838  0.32616  Biso   1.000  P 
  O5499    1.0000 0.73484  0.71838  0.28738  Biso   1.000  O 
  O5500    1.0000 0.64463  0.71838  0.32869  Biso   1.000  O 
  Ca2116   1.0000 0.74929  0.71838  0.31234  Biso   1.000  Ca
  P1268    1.0000 0.70404  0.71838  0.31554  Biso   1.000  P 
  O5501    1.0000 0.69200  0.71838  0.30033  Biso   1.000  O 
  O5502    1.0000 0.68949  0.71838  0.32941  Biso   1.000  O 
  Ca2117   1.0000 0.65599  0.71838  0.29725  Biso   1.000  Ca
  P1269    1.0000 0.54995  0.71838  0.32042  Biso   1.000  P 
  O5503    1.0000 0.57350  0.71838  0.32020  Biso   1.000  O 
  O5504    1.0000 0.54122  0.71838  0.30402  Biso   1.000  O 
  Ca2118   1.0000 0.53018  0.65589  0.32502  Biso   1.000  Ca
  P1270    1.0000 0.50386  0.65589  0.29718  Biso   1.000  P 
  O5505    1.0000 0.64039  0.65589  0.33596  Biso   1.000  O 
  O5506    1.0000 0.73060  0.65589  0.29465  Biso   1.000  O 
  Ca2119   1.0000 0.62593  0.65589  0.31099  Biso   1.000  Ca
  P1271    1.0000 0.67119  0.65589  0.30781  Biso   1.000  P 
  O5507    1.0000 0.68322  0.65589  0.32302  Biso   1.000  O 
  O5508    1.0000 0.68573  0.65589  0.29393  Biso   1.000  O 
  Ca2120   1.0000 0.71922  0.65589  0.32610  Biso   1.000  Ca
  P1272    1.0000 0.57528  0.65589  0.30291  Biso   1.000  P 
  O5509    1.0000 0.55172  0.65589  0.30314  Biso   1.000  O 
  O5510    1.0000 0.58400  0.65589  0.31932  Biso   1.000  O 
  O5511    1.0000 0.62511  0.64938  0.28456  Biso   1.000  O 
  O5512    1.0000 0.62511  0.71187  0.28456  Biso   1.000  O 
  H423     1.0000 0.62511  0.62920  0.28456  Biso   1.000  H 
  H424     1.0000 0.62522  0.69169  0.28452  Biso   1.000  H 
  O5513    1.0000 0.73942  0.74085  0.37139  Biso   1.000  O 
  O5514    1.0000 0.59286  0.74085  0.36974  Biso   1.000  O 
  O5515    1.0000 0.66805  0.74085  0.38364  Biso   1.000  O 
  O5516    1.0000 0.63580  0.67835  0.36038  Biso   1.000  O 
  O5517    1.0000 0.53236  0.67835  0.36204  Biso   1.000  O 
  O5518    1.0000 0.70717  0.67835  0.34813  Biso   1.000  O 
  O5519    1.0000 0.63580  0.63342  0.36038  Biso   1.000  O 
  O5520    1.0000 0.53236  0.63342  0.36204  Biso   1.000  O 
  O5521    1.0000 0.70717  0.63342  0.34813  Biso   1.000  O 
  O5522    1.0000 0.73942  0.69593  0.37139  Biso   1.000  O 
  O5523    1.0000 0.59286  0.69593  0.36974  Biso   1.000  O 
  O5524    1.0000 0.66805  0.69593  0.38364  Biso   1.000  O 
  Ca2121   1.0000 0.66678  0.74945  0.33877  Biso   1.000  Ca
  Ca2122   1.0000 0.58344  0.68696  0.33878  Biso   1.000  Ca
  Ca2123   1.0000 0.58344  0.74982  0.33878  Biso   1.000  Ca
  Ca2124   1.0000 0.66678  0.68731  0.33877  Biso   1.000  Ca
  Ca2125   1.0000 0.72006  0.71838  0.35254  Biso   1.000  Ca
  P1273    1.0000 0.74636  0.71838  0.38038  Biso   1.000  P 
  O5525    1.0000 0.60984  0.71838  0.34160  Biso   1.000  O 
  O5526    1.0000 0.51963  0.71838  0.38291  Biso   1.000  O 
  Ca2126   1.0000 0.62429  0.71838  0.36656  Biso   1.000  Ca
  P1274    1.0000 0.57904  0.71838  0.36975  Biso   1.000  P 
  O5527    1.0000 0.56700  0.71838  0.35454  Biso   1.000  O 
  O5528    1.0000 0.56449  0.71838  0.38362  Biso   1.000  O 
  Ca2127   1.0000 0.53099  0.71838  0.35146  Biso   1.000  Ca
  P1275    1.0000 0.67495  0.71838  0.37464  Biso   1.000  P 
  O5529    1.0000 0.69850  0.71838  0.37442  Biso   1.000  O 
  O5530    1.0000 0.66622  0.71838  0.35824  Biso   1.000  O 
  Ca2128   1.0000 0.65518  0.65589  0.37924  Biso   1.000  Ca
  P1276    1.0000 0.62886  0.65589  0.35140  Biso   1.000  P 
  O5531    1.0000 0.51539  0.65589  0.39018  Biso   1.000  O 
  O5532    1.0000 0.60560  0.65589  0.34887  Biso   1.000  O 
  Ca2129   1.0000 0.50093  0.65589  0.36521  Biso   1.000  Ca
  P1277    1.0000 0.54619  0.65589  0.36203  Biso   1.000  P 
  O5533    1.0000 0.55822  0.65589  0.37724  Biso   1.000  O 
  O5534    1.0000 0.56073  0.65589  0.34815  Biso   1.000  O 
  Ca2130   1.0000 0.59422  0.65589  0.38032  Biso   1.000  Ca
  P1278    1.0000 0.70028  0.65589  0.35713  Biso   1.000  P 
  O5535    1.0000 0.67672  0.65589  0.35736  Biso   1.000  O 
  O5536    1.0000 0.70900  0.65589  0.37353  Biso   1.000  O 
  O5537    1.0000 0.50011  0.64938  0.33878  Biso   1.000  O 
  O5538    1.0000 0.50011  0.71187  0.33878  Biso   1.000  O 
  H425     1.0000 0.50011  0.62920  0.33878  Biso   1.000  H 
  H426     1.0000 0.50022  0.69169  0.33873  Biso   1.000  H 
  O5539    1.0000 0.61442  0.74085  0.42561  Biso   1.000  O 
  O5540    1.0000 0.71786  0.74085  0.42395  Biso   1.000  O 
  O5541    1.0000 0.54305  0.74085  0.43786  Biso   1.000  O 
  O5542    1.0000 0.51080  0.67835  0.41460  Biso   1.000  O 
  O5543    1.0000 0.65736  0.67835  0.41625  Biso   1.000  O 
  O5544    1.0000 0.58217  0.67835  0.40235  Biso   1.000  O 
  O5545    1.0000 0.51080  0.63342  0.41460  Biso   1.000  O 
  O5546    1.0000 0.65736  0.63342  0.41625  Biso   1.000  O 
  O5547    1.0000 0.58217  0.63342  0.40235  Biso   1.000  O 
  O5548    1.0000 0.61442  0.69593  0.42561  Biso   1.000  O 
  O5549    1.0000 0.71786  0.69593  0.42395  Biso   1.000  O 
  O5550    1.0000 0.54305  0.69593  0.43786  Biso   1.000  O 
  Ca2131   1.0000 0.54178  0.74945  0.39299  Biso   1.000  Ca
  Ca2132   1.0000 0.70844  0.68696  0.39300  Biso   1.000  Ca
  Ca2133   1.0000 0.70844  0.74982  0.39300  Biso   1.000  Ca
  Ca2134   1.0000 0.54178  0.68731  0.39299  Biso   1.000  Ca
  Ca2135   1.0000 0.59506  0.71838  0.40675  Biso   1.000  Ca
  P1279    1.0000 0.62136  0.71838  0.43460  Biso   1.000  P 
  O5551    1.0000 0.73484  0.71838  0.39582  Biso   1.000  O 
  O5552    1.0000 0.64463  0.71838  0.43713  Biso   1.000  O 
  Ca2136   1.0000 0.74929  0.71838  0.42078  Biso   1.000  Ca
  P1280    1.0000 0.70404  0.71838  0.42397  Biso   1.000  P 
  O5553    1.0000 0.69200  0.71838  0.40876  Biso   1.000  O 
  O5554    1.0000 0.68949  0.71838  0.43784  Biso   1.000  O 
  Ca2137   1.0000 0.65599  0.71838  0.40568  Biso   1.000  Ca
  P1281    1.0000 0.54995  0.71838  0.42886  Biso   1.000  P 
  O5555    1.0000 0.57350  0.71838  0.42864  Biso   1.000  O 
  O5556    1.0000 0.54122  0.71838  0.41246  Biso   1.000  O 
  Ca2138   1.0000 0.53018  0.65589  0.43346  Biso   1.000  Ca
  P1282    1.0000 0.50386  0.65589  0.40561  Biso   1.000  P 
  O5557    1.0000 0.64039  0.65589  0.44439  Biso   1.000  O 
  O5558    1.0000 0.73060  0.65589  0.40309  Biso   1.000  O 
  Ca2139   1.0000 0.62593  0.65589  0.41943  Biso   1.000  Ca
  P1283    1.0000 0.67119  0.65589  0.41624  Biso   1.000  P 
  O5559    1.0000 0.68322  0.65589  0.43146  Biso   1.000  O 
  O5560    1.0000 0.68573  0.65589  0.40237  Biso   1.000  O 
  Ca2140   1.0000 0.71922  0.65589  0.43454  Biso   1.000  Ca
  P1284    1.0000 0.57528  0.65589  0.41135  Biso   1.000  P 
  O5561    1.0000 0.55172  0.65589  0.41157  Biso   1.000  O 
  O5562    1.0000 0.58400  0.65589  0.42775  Biso   1.000  O 
  O5563    1.0000 0.62511  0.64938  0.39300  Biso   1.000  O 
  O5564    1.0000 0.62511  0.71187  0.39300  Biso   1.000  O 
  H427     1.0000 0.62511  0.62920  0.39300  Biso   1.000  H 
  H428     1.0000 0.62522  0.69169  0.39295  Biso   1.000  H 
  O5565    1.0000 0.73942  0.74085  0.47982  Biso   1.000  O 
  O5566    1.0000 0.59286  0.74085  0.47817  Biso   1.000  O 
  O5567    1.0000 0.66805  0.74085  0.49208  Biso   1.000  O 
  O5568    1.0000 0.63580  0.67835  0.46882  Biso   1.000  O 
  O5569    1.0000 0.53236  0.67835  0.47047  Biso   1.000  O 
  O5570    1.0000 0.70717  0.67835  0.45657  Biso   1.000  O 
  O5571    1.0000 0.63580  0.63342  0.46882  Biso   1.000  O 
  O5572    1.0000 0.53236  0.63342  0.47047  Biso   1.000  O 
  O5573    1.0000 0.70717  0.63342  0.45657  Biso   1.000  O 
  O5574    1.0000 0.73942  0.69593  0.47982  Biso   1.000  O 
  O5575    1.0000 0.59286  0.69593  0.47817  Biso   1.000  O 
  O5576    1.0000 0.66805  0.69593  0.49208  Biso   1.000  O 
  Ca2141   1.0000 0.66678  0.74945  0.44721  Biso   1.000  Ca
  Ca2142   1.0000 0.58344  0.68696  0.44722  Biso   1.000  Ca
  Ca2143   1.0000 0.58344  0.74982  0.44722  Biso   1.000  Ca
  Ca2144   1.0000 0.66678  0.68731  0.44721  Biso   1.000  Ca
  Ca2145   1.0000 0.72006  0.71838  0.46097  Biso   1.000  Ca
  P1285    1.0000 0.74636  0.71838  0.48881  Biso   1.000  P 
  O5577    1.0000 0.60984  0.71838  0.45004  Biso   1.000  O 
  O5578    1.0000 0.51963  0.71838  0.49134  Biso   1.000  O 
  Ca2146   1.0000 0.62429  0.71838  0.47500  Biso   1.000  Ca
  P1286    1.0000 0.57904  0.71838  0.47819  Biso   1.000  P 
  O5579    1.0000 0.56700  0.71838  0.46298  Biso   1.000  O 
  O5580    1.0000 0.56449  0.71838  0.49206  Biso   1.000  O 
  Ca2147   1.0000 0.53099  0.71838  0.45990  Biso   1.000  Ca
  P1287    1.0000 0.67495  0.71838  0.48308  Biso   1.000  P 
  O5581    1.0000 0.69850  0.71838  0.48285  Biso   1.000  O 
  O5582    1.0000 0.66622  0.71838  0.46667  Biso   1.000  O 
  Ca2148   1.0000 0.65518  0.65589  0.48768  Biso   1.000  Ca
  P1288    1.0000 0.62886  0.65589  0.45983  Biso   1.000  P 
  O5583    1.0000 0.51539  0.65589  0.49861  Biso   1.000  O 
  O5584    1.0000 0.60560  0.65589  0.45731  Biso   1.000  O 
  Ca2149   1.0000 0.50093  0.65589  0.47365  Biso   1.000  Ca
  P1289    1.0000 0.54619  0.65589  0.47046  Biso   1.000  P 
  O5585    1.0000 0.55822  0.65589  0.48568  Biso   1.000  O 
  O5586    1.0000 0.56073  0.65589  0.45658  Biso   1.000  O 
  Ca2150   1.0000 0.59422  0.65589  0.48875  Biso   1.000  Ca
  P1290    1.0000 0.70028  0.65589  0.46557  Biso   1.000  P 
  O5587    1.0000 0.67672  0.65589  0.46579  Biso   1.000  O 
  O5588    1.0000 0.70900  0.65589  0.48197  Biso   1.000  O 
  O5589    1.0000 0.50011  0.64938  0.44722  Biso   1.000  O 
  O5590    1.0000 0.50011  0.71187  0.44722  Biso   1.000  O 
  H429     1.0000 0.50011  0.62920  0.44722  Biso   1.000  H 
  H430     1.0000 0.50022  0.69169  0.44717  Biso   1.000  H 
  O5591    1.0000 0.61442  0.74085  0.53404  Biso   1.000  O 
  O5592    1.0000 0.71786  0.74085  0.53239  Biso   1.000  O 
  O5593    1.0000 0.54305  0.74085  0.54629  Biso   1.000  O 
  O5594    1.0000 0.51080  0.67835  0.52304  Biso   1.000  O 
  O5595    1.0000 0.65736  0.67835  0.52469  Biso   1.000  O 
  O5596    1.0000 0.58217  0.67835  0.51079  Biso   1.000  O 
  O5597    1.0000 0.51080  0.63342  0.52304  Biso   1.000  O 
  O5598    1.0000 0.65736  0.63342  0.52469  Biso   1.000  O 
  O5599    1.0000 0.58217  0.63342  0.51079  Biso   1.000  O 
  O5600    1.0000 0.61442  0.69593  0.53404  Biso   1.000  O 
  O5601    1.0000 0.71786  0.69593  0.53239  Biso   1.000  O 
  O5602    1.0000 0.54305  0.69593  0.54629  Biso   1.000  O 
  Ca2151   1.0000 0.54178  0.74945  0.50143  Biso   1.000  Ca
  Ca2152   1.0000 0.70844  0.68696  0.50144  Biso   1.000  Ca
  Ca2153   1.0000 0.70844  0.74982  0.50144  Biso   1.000  Ca
  Ca2154   1.0000 0.54178  0.68731  0.50143  Biso   1.000  Ca
  Ca2155   1.0000 0.59506  0.71838  0.51519  Biso   1.000  Ca
  P1291    1.0000 0.62136  0.71838  0.54303  Biso   1.000  P 
  O5603    1.0000 0.73484  0.71838  0.50426  Biso   1.000  O 
  O5604    1.0000 0.64463  0.71838  0.54556  Biso   1.000  O 
  Ca2156   1.0000 0.74929  0.71838  0.52922  Biso   1.000  Ca
  P1292    1.0000 0.70404  0.71838  0.53241  Biso   1.000  P 
  O5605    1.0000 0.69200  0.71838  0.51720  Biso   1.000  O 
  O5606    1.0000 0.68949  0.71838  0.54628  Biso   1.000  O 
  Ca2157   1.0000 0.65599  0.71838  0.51412  Biso   1.000  Ca
  P1293    1.0000 0.54995  0.71838  0.53729  Biso   1.000  P 
  O5607    1.0000 0.57350  0.71838  0.53707  Biso   1.000  O 
  O5608    1.0000 0.54122  0.71838  0.52089  Biso   1.000  O 
  Ca2158   1.0000 0.53018  0.65589  0.54190  Biso   1.000  Ca
  P1294    1.0000 0.50386  0.65589  0.51405  Biso   1.000  P 
  O5609    1.0000 0.64039  0.65589  0.55283  Biso   1.000  O 
  O5610    1.0000 0.73060  0.65589  0.51152  Biso   1.000  O 
  Ca2159   1.0000 0.62593  0.65589  0.52786  Biso   1.000  Ca
  P1295    1.0000 0.67119  0.65589  0.52468  Biso   1.000  P 
  O5611    1.0000 0.68322  0.65589  0.53989  Biso   1.000  O 
  O5612    1.0000 0.68573  0.65589  0.51080  Biso   1.000  O 
  Ca2160   1.0000 0.71922  0.65589  0.54297  Biso   1.000  Ca
  P1296    1.0000 0.57528  0.65589  0.51979  Biso   1.000  P 
  O5613    1.0000 0.55172  0.65589  0.52001  Biso   1.000  O 
  O5614    1.0000 0.58400  0.65589  0.53619  Biso   1.000  O 
  O5615    1.0000 0.62511  0.64938  0.50143  Biso   1.000  O 
  O5616    1.0000 0.62511  0.71187  0.50143  Biso   1.000  O 
  H431     1.0000 0.62511  0.62920  0.50143  Biso   1.000  H 
  H432     1.0000 0.62522  0.69169  0.50139  Biso   1.000  H 
  O5617    1.0000 0.73942  0.74085  0.58826  Biso   1.000  O 
  O5618    1.0000 0.59286  0.74085  0.58661  Biso   1.000  O 
  O5619    1.0000 0.66805  0.74085  0.60051  Biso   1.000  O 
  O5620    1.0000 0.63580  0.67835  0.57726  Biso   1.000  O 
  O5621    1.0000 0.53236  0.67835  0.57891  Biso   1.000  O 
  O5622    1.0000 0.70717  0.67835  0.56500  Biso   1.000  O 
  O5623    1.0000 0.63580  0.63342  0.57726  Biso   1.000  O 
  O5624    1.0000 0.53236  0.63342  0.57891  Biso   1.000  O 
  O5625    1.0000 0.70717  0.63342  0.56500  Biso   1.000  O 
  O5626    1.0000 0.73942  0.69593  0.58826  Biso   1.000  O 
  O5627    1.0000 0.59286  0.69593  0.58661  Biso   1.000  O 
  O5628    1.0000 0.66805  0.69593  0.60051  Biso   1.000  O 
  Ca2161   1.0000 0.66678  0.74945  0.55565  Biso   1.000  Ca
  Ca2162   1.0000 0.58344  0.68696  0.55565  Biso   1.000  Ca
  Ca2163   1.0000 0.58344  0.74982  0.55565  Biso   1.000  Ca
  Ca2164   1.0000 0.66678  0.68731  0.55565  Biso   1.000  Ca
  Ca2165   1.0000 0.72006  0.71838  0.56941  Biso   1.000  Ca
  P1297    1.0000 0.74636  0.71838  0.59725  Biso   1.000  P 
  O5629    1.0000 0.60984  0.71838  0.55847  Biso   1.000  O 
  O5630    1.0000 0.51963  0.71838  0.59978  Biso   1.000  O 
  Ca2166   1.0000 0.62429  0.71838  0.58343  Biso   1.000  Ca
  P1298    1.0000 0.57904  0.71838  0.58662  Biso   1.000  P 
  O5631    1.0000 0.56700  0.71838  0.57141  Biso   1.000  O 
  O5632    1.0000 0.56449  0.71838  0.60050  Biso   1.000  O 
  Ca2167   1.0000 0.53099  0.71838  0.56834  Biso   1.000  Ca
  P1299    1.0000 0.67495  0.71838  0.59151  Biso   1.000  P 
  O5633    1.0000 0.69850  0.71838  0.59129  Biso   1.000  O 
  O5634    1.0000 0.66622  0.71838  0.57511  Biso   1.000  O 
  Ca2168   1.0000 0.65518  0.65589  0.59611  Biso   1.000  Ca
  P1300    1.0000 0.62886  0.65589  0.56827  Biso   1.000  P 
  O5635    1.0000 0.51539  0.65589  0.60705  Biso   1.000  O 
  O5636    1.0000 0.60560  0.65589  0.56574  Biso   1.000  O 
  Ca2169   1.0000 0.50093  0.65589  0.58208  Biso   1.000  Ca
  P1301    1.0000 0.54619  0.65589  0.57890  Biso   1.000  P 
  O5637    1.0000 0.55822  0.65589  0.59411  Biso   1.000  O 
  O5638    1.0000 0.56073  0.65589  0.56502  Biso   1.000  O 
  Ca2170   1.0000 0.59422  0.65589  0.59719  Biso   1.000  Ca
  P1302    1.0000 0.70028  0.65589  0.57400  Biso   1.000  P 
  O5639    1.0000 0.67672  0.65589  0.57423  Biso   1.000  O 
  O5640    1.0000 0.70900  0.65589  0.59041  Biso   1.000  O 
  O5641    1.0000 0.50011  0.64938  0.55565  Biso   1.000  O 
  O5642    1.0000 0.50011  0.71187  0.55565  Biso   1.000  O 
  H433     1.0000 0.50011  0.62920  0.55565  Biso   1.000  H 
  H434     1.0000 0.50022  0.69169  0.55561  Biso   1.000  H 
  O5643    1.0000 0.61442  0.74085  0.64248  Biso   1.000  O 
  O5644    1.0000 0.71786  0.74085  0.64083  Biso   1.000  O 
  O5645    1.0000 0.54305  0.74085  0.65473  Biso   1.000  O 
  O5646    1.0000 0.51080  0.67835  0.63147  Biso   1.000  O 
  O5647    1.0000 0.65736  0.67835  0.63313  Biso   1.000  O 
  O5648    1.0000 0.58217  0.67835  0.61922  Biso   1.000  O 
  O5649    1.0000 0.51080  0.63342  0.63147  Biso   1.000  O 
  O5650    1.0000 0.65736  0.63342  0.63313  Biso   1.000  O 
  O5651    1.0000 0.58217  0.63342  0.61922  Biso   1.000  O 
  O5652    1.0000 0.61442  0.69593  0.64248  Biso   1.000  O 
  O5653    1.0000 0.71786  0.69593  0.64083  Biso   1.000  O 
  O5654    1.0000 0.54305  0.69593  0.65473  Biso   1.000  O 
  Ca2171   1.0000 0.54178  0.74945  0.60986  Biso   1.000  Ca
  Ca2172   1.0000 0.70844  0.68696  0.60987  Biso   1.000  Ca
  Ca2173   1.0000 0.70844  0.74982  0.60987  Biso   1.000  Ca
  Ca2174   1.0000 0.54178  0.68731  0.60986  Biso   1.000  Ca
  Ca2175   1.0000 0.59506  0.71838  0.62363  Biso   1.000  Ca
  P1303    1.0000 0.62136  0.71838  0.65147  Biso   1.000  P 
  O5655    1.0000 0.73484  0.71838  0.61269  Biso   1.000  O 
  O5656    1.0000 0.64463  0.71838  0.65400  Biso   1.000  O 
  Ca2176   1.0000 0.74929  0.71838  0.63765  Biso   1.000  Ca
  P1304    1.0000 0.70404  0.71838  0.64084  Biso   1.000  P 
  O5657    1.0000 0.69200  0.71838  0.62563  Biso   1.000  O 
  O5658    1.0000 0.68949  0.71838  0.65471  Biso   1.000  O 
  Ca2177   1.0000 0.65599  0.71838  0.62255  Biso   1.000  Ca
  P1305    1.0000 0.54995  0.71838  0.64573  Biso   1.000  P 
  O5659    1.0000 0.57350  0.71838  0.64551  Biso   1.000  O 
  O5660    1.0000 0.54122  0.71838  0.62933  Biso   1.000  O 
  Ca2178   1.0000 0.53018  0.65589  0.65033  Biso   1.000  Ca
  P1306    1.0000 0.50386  0.65589  0.62248  Biso   1.000  P 
  O5661    1.0000 0.64039  0.65589  0.66127  Biso   1.000  O 
  O5662    1.0000 0.73060  0.65589  0.61996  Biso   1.000  O 
  Ca2179   1.0000 0.62593  0.65589  0.63630  Biso   1.000  Ca
  P1307    1.0000 0.67119  0.65589  0.63312  Biso   1.000  P 
  O5663    1.0000 0.68322  0.65589  0.64833  Biso   1.000  O 
  O5664    1.0000 0.68573  0.65589  0.61924  Biso   1.000  O 
  Ca2180   1.0000 0.71922  0.65589  0.65141  Biso   1.000  Ca
  P1308    1.0000 0.57528  0.65589  0.62822  Biso   1.000  P 
  O5665    1.0000 0.55172  0.65589  0.62845  Biso   1.000  O 
  O5666    1.0000 0.58400  0.65589  0.64462  Biso   1.000  O 
  O5667    1.0000 0.62511  0.64938  0.60987  Biso   1.000  O 
  O5668    1.0000 0.62511  0.71187  0.60987  Biso   1.000  O 
  H435     1.0000 0.62511  0.62920  0.60987  Biso   1.000  H 
  H436     1.0000 0.62522  0.69169  0.60982  Biso   1.000  H 
  O5669    1.0000 0.73942  0.74085  0.69670  Biso   1.000  O 
  O5670    1.0000 0.59286  0.74085  0.69504  Biso   1.000  O 
  O5671    1.0000 0.66805  0.74085  0.70895  Biso   1.000  O 
  O5672    1.0000 0.63580  0.67835  0.68569  Biso   1.000  O 
  O5673    1.0000 0.53236  0.67835  0.68734  Biso   1.000  O 
  O5674    1.0000 0.70717  0.67835  0.67344  Biso   1.000  O 
  O5675    1.0000 0.63580  0.63342  0.68569  Biso   1.000  O 
  O5676    1.0000 0.53236  0.63342  0.68734  Biso   1.000  O 
  O5677    1.0000 0.70717  0.63342  0.67344  Biso   1.000  O 
  O5678    1.0000 0.73942  0.69593  0.69670  Biso   1.000  O 
  O5679    1.0000 0.59286  0.69593  0.69504  Biso   1.000  O 
  O5680    1.0000 0.66805  0.69593  0.70895  Biso   1.000  O 
  Ca2181   1.0000 0.66678  0.74945  0.66408  Biso   1.000  Ca
  Ca2182   1.0000 0.58344  0.68696  0.66409  Biso   1.000  Ca
  Ca2183   1.0000 0.58344  0.74982  0.66409  Biso   1.000  Ca
  Ca2184   1.0000 0.66678  0.68731  0.66408  Biso   1.000  Ca
  Ca2185   1.0000 0.72006  0.71838  0.67784  Biso   1.000  Ca
  P1309    1.0000 0.74636  0.71838  0.70569  Biso   1.000  P 
  O5681    1.0000 0.60984  0.71838  0.66691  Biso   1.000  O 
  O5682    1.0000 0.51963  0.71838  0.70822  Biso   1.000  O 
  Ca2186   1.0000 0.62429  0.71838  0.69187  Biso   1.000  Ca
  P1310    1.0000 0.57904  0.71838  0.69506  Biso   1.000  P 
  O5683    1.0000 0.56700  0.71838  0.67985  Biso   1.000  O 
  O5684    1.0000 0.56449  0.71838  0.70893  Biso   1.000  O 
  Ca2187   1.0000 0.53099  0.71838  0.67677  Biso   1.000  Ca
  P1311    1.0000 0.67495  0.71838  0.69995  Biso   1.000  P 
  O5685    1.0000 0.69850  0.71838  0.69973  Biso   1.000  O 
  O5686    1.0000 0.66622  0.71838  0.68355  Biso   1.000  O 
  Ca2188   1.0000 0.65518  0.65589  0.70455  Biso   1.000  Ca
  P1312    1.0000 0.62886  0.65589  0.67670  Biso   1.000  P 
  O5687    1.0000 0.51539  0.65589  0.71548  Biso   1.000  O 
  O5688    1.0000 0.60560  0.65589  0.67418  Biso   1.000  O 
  Ca2189   1.0000 0.50093  0.65589  0.69052  Biso   1.000  Ca
  P1313    1.0000 0.54619  0.65589  0.68733  Biso   1.000  P 
  O5689    1.0000 0.55822  0.65589  0.70255  Biso   1.000  O 
  O5690    1.0000 0.56073  0.65589  0.67346  Biso   1.000  O 
  Ca2190   1.0000 0.59422  0.65589  0.70563  Biso   1.000  Ca
  P1314    1.0000 0.70028  0.65589  0.68244  Biso   1.000  P 
  O5691    1.0000 0.67672  0.65589  0.68266  Biso   1.000  O 
  O5692    1.0000 0.70900  0.65589  0.69884  Biso   1.000  O 
  O5693    1.0000 0.50011  0.64938  0.66409  Biso   1.000  O 
  O5694    1.0000 0.50011  0.71187  0.66409  Biso   1.000  O 
  H437     1.0000 0.50011  0.62920  0.66409  Biso   1.000  H 
  H438     1.0000 0.50022  0.69169  0.66404  Biso   1.000  H 
  O5695    1.0000 0.61442  0.74085  0.75091  Biso   1.000  O 
  O5696    1.0000 0.71786  0.74085  0.74926  Biso   1.000  O 
  O5697    1.0000 0.54305  0.74085  0.76317  Biso   1.000  O 
  O5698    1.0000 0.51080  0.67835  0.73991  Biso   1.000  O 
  O5699    1.0000 0.65736  0.67835  0.74156  Biso   1.000  O 
  O5700    1.0000 0.58217  0.67835  0.72766  Biso   1.000  O 
  O5701    1.0000 0.51080  0.63342  0.73991  Biso   1.000  O 
  O5702    1.0000 0.65736  0.63342  0.74156  Biso   1.000  O 
  O5703    1.0000 0.58217  0.63342  0.72766  Biso   1.000  O 
  O5704    1.0000 0.61442  0.69593  0.75091  Biso   1.000  O 
  O5705    1.0000 0.71786  0.69593  0.74926  Biso   1.000  O 
  O5706    1.0000 0.54305  0.69593  0.76317  Biso   1.000  O 
  Ca2191   1.0000 0.54178  0.74945  0.71830  Biso   1.000  Ca
  Ca2192   1.0000 0.70844  0.68696  0.71831  Biso   1.000  Ca
  Ca2193   1.0000 0.70844  0.74982  0.71831  Biso   1.000  Ca
  Ca2194   1.0000 0.54178  0.68731  0.71830  Biso   1.000  Ca
  Ca2195   1.0000 0.59506  0.71838  0.73206  Biso   1.000  Ca
  P1315    1.0000 0.62136  0.71838  0.75990  Biso   1.000  P 
  O5707    1.0000 0.73484  0.71838  0.72113  Biso   1.000  O 
  O5708    1.0000 0.64463  0.71838  0.76243  Biso   1.000  O 
  Ca2196   1.0000 0.74929  0.71838  0.74609  Biso   1.000  Ca
  P1316    1.0000 0.70404  0.71838  0.74928  Biso   1.000  P 
  O5709    1.0000 0.69200  0.71838  0.73407  Biso   1.000  O 
  O5710    1.0000 0.68949  0.71838  0.76315  Biso   1.000  O 
  Ca2197   1.0000 0.65599  0.71838  0.73099  Biso   1.000  Ca
  P1317    1.0000 0.54995  0.71838  0.75417  Biso   1.000  P 
  O5711    1.0000 0.57350  0.71838  0.75394  Biso   1.000  O 
  O5712    1.0000 0.54122  0.71838  0.73776  Biso   1.000  O 
  Ca2198   1.0000 0.53018  0.65589  0.75877  Biso   1.000  Ca
  P1318    1.0000 0.50386  0.65589  0.73092  Biso   1.000  P 
  O5713    1.0000 0.64039  0.65589  0.76970  Biso   1.000  O 
  O5714    1.0000 0.73060  0.65589  0.72840  Biso   1.000  O 
  Ca2199   1.0000 0.62593  0.65589  0.74474  Biso   1.000  Ca
  P1319    1.0000 0.67119  0.65589  0.74155  Biso   1.000  P 
  O5715    1.0000 0.68322  0.65589  0.75677  Biso   1.000  O 
  O5716    1.0000 0.68573  0.65589  0.72767  Biso   1.000  O 
  Ca2200   1.0000 0.71922  0.65589  0.75984  Biso   1.000  Ca
  P1320    1.0000 0.57528  0.65589  0.73666  Biso   1.000  P 
  O5717    1.0000 0.55172  0.65589  0.73688  Biso   1.000  O 
  O5718    1.0000 0.58400  0.65589  0.75306  Biso   1.000  O 
  O5719    1.0000 0.62511  0.64938  0.71831  Biso   1.000  O 
  O5720    1.0000 0.62511  0.71187  0.71831  Biso   1.000  O 
  H439     1.0000 0.62511  0.62920  0.71831  Biso   1.000  H 
  H440     1.0000 0.62522  0.69169  0.71826  Biso   1.000  H 
  O5721    1.0000 0.73942  0.86585  0.26295  Biso   1.000  O 
  O5722    1.0000 0.59286  0.86585  0.26130  Biso   1.000  O 
  O5723    1.0000 0.66805  0.86585  0.27520  Biso   1.000  O 
  O5724    1.0000 0.63580  0.80335  0.25195  Biso   1.000  O 
  O5725    1.0000 0.53236  0.80335  0.25360  Biso   1.000  O 
  O5726    1.0000 0.70717  0.80335  0.23970  Biso   1.000  O 
  O5727    1.0000 0.63580  0.75842  0.25195  Biso   1.000  O 
  O5728    1.0000 0.53236  0.75842  0.25360  Biso   1.000  O 
  O5729    1.0000 0.70717  0.75842  0.23970  Biso   1.000  O 
  O5730    1.0000 0.73942  0.82093  0.26295  Biso   1.000  O 
  O5731    1.0000 0.59286  0.82093  0.26130  Biso   1.000  O 
  O5732    1.0000 0.66805  0.82093  0.27520  Biso   1.000  O 
  Ca2201   1.0000 0.66678  0.87445  0.23034  Biso   1.000  Ca
  Ca2202   1.0000 0.58344  0.81196  0.23035  Biso   1.000  Ca
  Ca2203   1.0000 0.58344  0.87482  0.23035  Biso   1.000  Ca
  Ca2204   1.0000 0.66678  0.81231  0.23034  Biso   1.000  Ca
  Ca2205   1.0000 0.72006  0.84338  0.24410  Biso   1.000  Ca
  P1321    1.0000 0.74636  0.84338  0.27194  Biso   1.000  P 
  O5733    1.0000 0.60984  0.84338  0.23317  Biso   1.000  O 
  O5734    1.0000 0.51963  0.84338  0.27447  Biso   1.000  O 
  Ca2206   1.0000 0.62429  0.84338  0.25813  Biso   1.000  Ca
  P1322    1.0000 0.57904  0.84338  0.26132  Biso   1.000  P 
  O5735    1.0000 0.56700  0.84338  0.24611  Biso   1.000  O 
  O5736    1.0000 0.56449  0.84338  0.27519  Biso   1.000  O 
  Ca2207   1.0000 0.53099  0.84338  0.24303  Biso   1.000  Ca
  P1323    1.0000 0.67495  0.84338  0.26620  Biso   1.000  P 
  O5737    1.0000 0.69850  0.84338  0.26598  Biso   1.000  O 
  O5738    1.0000 0.66622  0.84338  0.24980  Biso   1.000  O 
  Ca2208   1.0000 0.65518  0.78089  0.27081  Biso   1.000  Ca
  P1324    1.0000 0.62886  0.78089  0.24296  Biso   1.000  P 
  O5739    1.0000 0.51539  0.78089  0.28174  Biso   1.000  O 
  O5740    1.0000 0.60560  0.78089  0.24043  Biso   1.000  O 
  Ca2209   1.0000 0.50093  0.78089  0.25677  Biso   1.000  Ca
  P1325    1.0000 0.54619  0.78089  0.25359  Biso   1.000  P 
  O5741    1.0000 0.55822  0.78089  0.26880  Biso   1.000  O 
  O5742    1.0000 0.56073  0.78089  0.23971  Biso   1.000  O 
  Ca2210   1.0000 0.59422  0.78089  0.27188  Biso   1.000  Ca
  P1326    1.0000 0.70028  0.78089  0.24870  Biso   1.000  P 
  O5743    1.0000 0.67672  0.78089  0.24892  Biso   1.000  O 
  O5744    1.0000 0.70900  0.78089  0.26510  Biso   1.000  O 
  O5745    1.0000 0.50011  0.77438  0.23034  Biso   1.000  O 
  O5746    1.0000 0.50011  0.83687  0.23034  Biso   1.000  O 
  H441     1.0000 0.50011  0.75420  0.23034  Biso   1.000  H 
  H442     1.0000 0.50022  0.81669  0.23030  Biso   1.000  H 
  O5747    1.0000 0.61442  0.86585  0.31717  Biso   1.000  O 
  O5748    1.0000 0.71786  0.86585  0.31552  Biso   1.000  O 
  O5749    1.0000 0.54305  0.86585  0.32942  Biso   1.000  O 
  O5750    1.0000 0.51080  0.80335  0.30617  Biso   1.000  O 
  O5751    1.0000 0.65736  0.80335  0.30782  Biso   1.000  O 
  O5752    1.0000 0.58217  0.80335  0.29391  Biso   1.000  O 
  O5753    1.0000 0.51080  0.75842  0.30617  Biso   1.000  O 
  O5754    1.0000 0.65736  0.75842  0.30782  Biso   1.000  O 
  O5755    1.0000 0.58217  0.75842  0.29391  Biso   1.000  O 
  O5756    1.0000 0.61442  0.82093  0.31717  Biso   1.000  O 
  O5757    1.0000 0.71786  0.82093  0.31552  Biso   1.000  O 
  O5758    1.0000 0.54305  0.82093  0.32942  Biso   1.000  O 
  Ca2211   1.0000 0.54178  0.87445  0.28456  Biso   1.000  Ca
  Ca2212   1.0000 0.70844  0.81196  0.28456  Biso   1.000  Ca
  Ca2213   1.0000 0.70844  0.87482  0.28456  Biso   1.000  Ca
  Ca2214   1.0000 0.54178  0.81231  0.28456  Biso   1.000  Ca
  Ca2215   1.0000 0.59506  0.84338  0.29832  Biso   1.000  Ca
  P1327    1.0000 0.62136  0.84338  0.32616  Biso   1.000  P 
  O5759    1.0000 0.73484  0.84338  0.28738  Biso   1.000  O 
  O5760    1.0000 0.64463  0.84338  0.32869  Biso   1.000  O 
  Ca2216   1.0000 0.74929  0.84338  0.31234  Biso   1.000  Ca
  P1328    1.0000 0.70404  0.84338  0.31554  Biso   1.000  P 
  O5761    1.0000 0.69200  0.84338  0.30033  Biso   1.000  O 
  O5762    1.0000 0.68949  0.84338  0.32941  Biso   1.000  O 
  Ca2217   1.0000 0.65599  0.84338  0.29725  Biso   1.000  Ca
  P1329    1.0000 0.54995  0.84338  0.32042  Biso   1.000  P 
  O5763    1.0000 0.57350  0.84338  0.32020  Biso   1.000  O 
  O5764    1.0000 0.54122  0.84338  0.30402  Biso   1.000  O 
  Ca2218   1.0000 0.53018  0.78089  0.32502  Biso   1.000  Ca
  P1330    1.0000 0.50386  0.78089  0.29718  Biso   1.000  P 
  O5765    1.0000 0.64039  0.78089  0.33596  Biso   1.000  O 
  O5766    1.0000 0.73060  0.78089  0.29465  Biso   1.000  O 
  Ca2219   1.0000 0.62593  0.78089  0.31099  Biso   1.000  Ca
  P1331    1.0000 0.67119  0.78089  0.30781  Biso   1.000  P 
  O5767    1.0000 0.68322  0.78089  0.32302  Biso   1.000  O 
  O5768    1.0000 0.68573  0.78089  0.29393  Biso   1.000  O 
  Ca2220   1.0000 0.71922  0.78089  0.32610  Biso   1.000  Ca
  P1332    1.0000 0.57528  0.78089  0.30291  Biso   1.000  P 
  O5769    1.0000 0.55172  0.78089  0.30314  Biso   1.000  O 
  O5770    1.0000 0.58400  0.78089  0.31932  Biso   1.000  O 
  O5771    1.0000 0.62511  0.77438  0.28456  Biso   1.000  O 
  O5772    1.0000 0.62511  0.83687  0.28456  Biso   1.000  O 
  H443     1.0000 0.62511  0.75420  0.28456  Biso   1.000  H 
  H444     1.0000 0.62522  0.81669  0.28452  Biso   1.000  H 
  O5773    1.0000 0.73942  0.86585  0.37139  Biso   1.000  O 
  O5774    1.0000 0.59286  0.86585  0.36974  Biso   1.000  O 
  O5775    1.0000 0.66805  0.86585  0.38364  Biso   1.000  O 
  O5776    1.0000 0.63580  0.80335  0.36038  Biso   1.000  O 
  O5777    1.0000 0.53236  0.80335  0.36204  Biso   1.000  O 
  O5778    1.0000 0.70717  0.80335  0.34813  Biso   1.000  O 
  O5779    1.0000 0.63580  0.75842  0.36038  Biso   1.000  O 
  O5780    1.0000 0.53236  0.75842  0.36204  Biso   1.000  O 
  O5781    1.0000 0.70717  0.75842  0.34813  Biso   1.000  O 
  O5782    1.0000 0.73942  0.82093  0.37139  Biso   1.000  O 
  O5783    1.0000 0.59286  0.82093  0.36974  Biso   1.000  O 
  O5784    1.0000 0.66805  0.82093  0.38364  Biso   1.000  O 
  Ca2221   1.0000 0.66678  0.87445  0.33877  Biso   1.000  Ca
  Ca2222   1.0000 0.58344  0.81196  0.33878  Biso   1.000  Ca
  Ca2223   1.0000 0.58344  0.87482  0.33878  Biso   1.000  Ca
  Ca2224   1.0000 0.66678  0.81231  0.33877  Biso   1.000  Ca
  Ca2225   1.0000 0.72006  0.84338  0.35254  Biso   1.000  Ca
  P1333    1.0000 0.74636  0.84338  0.38038  Biso   1.000  P 
  O5785    1.0000 0.60984  0.84338  0.34160  Biso   1.000  O 
  O5786    1.0000 0.51963  0.84338  0.38291  Biso   1.000  O 
  Ca2226   1.0000 0.62429  0.84338  0.36656  Biso   1.000  Ca
  P1334    1.0000 0.57904  0.84338  0.36975  Biso   1.000  P 
  O5787    1.0000 0.56700  0.84338  0.35454  Biso   1.000  O 
  O5788    1.0000 0.56449  0.84338  0.38362  Biso   1.000  O 
  Ca2227   1.0000 0.53099  0.84338  0.35146  Biso   1.000  Ca
  P1335    1.0000 0.67495  0.84338  0.37464  Biso   1.000  P 
  O5789    1.0000 0.69850  0.84338  0.37442  Biso   1.000  O 
  O5790    1.0000 0.66622  0.84338  0.35824  Biso   1.000  O 
  Ca2228   1.0000 0.65518  0.78089  0.37924  Biso   1.000  Ca
  P1336    1.0000 0.62886  0.78089  0.35140  Biso   1.000  P 
  O5791    1.0000 0.51539  0.78089  0.39018  Biso   1.000  O 
  O5792    1.0000 0.60560  0.78089  0.34887  Biso   1.000  O 
  Ca2229   1.0000 0.50093  0.78089  0.36521  Biso   1.000  Ca
  P1337    1.0000 0.54619  0.78089  0.36203  Biso   1.000  P 
  O5793    1.0000 0.55822  0.78089  0.37724  Biso   1.000  O 
  O5794    1.0000 0.56073  0.78089  0.34815  Biso   1.000  O 
  Ca2230   1.0000 0.59422  0.78089  0.38032  Biso   1.000  Ca
  P1338    1.0000 0.70028  0.78089  0.35713  Biso   1.000  P 
  O5795    1.0000 0.67672  0.78089  0.35736  Biso   1.000  O 
  O5796    1.0000 0.70900  0.78089  0.37353  Biso   1.000  O 
  O5797    1.0000 0.50011  0.77438  0.33878  Biso   1.000  O 
  O5798    1.0000 0.50011  0.83687  0.33878  Biso   1.000  O 
  H445     1.0000 0.50011  0.75420  0.33878  Biso   1.000  H 
  H446     1.0000 0.50022  0.81669  0.33873  Biso   1.000  H 
  O5799    1.0000 0.61442  0.86585  0.42561  Biso   1.000  O 
  O5800    1.0000 0.71786  0.86585  0.42395  Biso   1.000  O 
  O5801    1.0000 0.54305  0.86585  0.43786  Biso   1.000  O 
  O5802    1.0000 0.51080  0.80335  0.41460  Biso   1.000  O 
  O5803    1.0000 0.65736  0.80335  0.41625  Biso   1.000  O 
  O5804    1.0000 0.58217  0.80335  0.40235  Biso   1.000  O 
  O5805    1.0000 0.51080  0.75842  0.41460  Biso   1.000  O 
  O5806    1.0000 0.65736  0.75842  0.41625  Biso   1.000  O 
  O5807    1.0000 0.58217  0.75842  0.40235  Biso   1.000  O 
  O5808    1.0000 0.61442  0.82093  0.42561  Biso   1.000  O 
  O5809    1.0000 0.71786  0.82093  0.42395  Biso   1.000  O 
  O5810    1.0000 0.54305  0.82093  0.43786  Biso   1.000  O 
  Ca2231   1.0000 0.54178  0.87445  0.39299  Biso   1.000  Ca
  Ca2232   1.0000 0.70844  0.81196  0.39300  Biso   1.000  Ca
  Ca2233   1.0000 0.70844  0.87482  0.39300  Biso   1.000  Ca
  Ca2234   1.0000 0.54178  0.81231  0.39299  Biso   1.000  Ca
  Ca2235   1.0000 0.59506  0.84338  0.40675  Biso   1.000  Ca
  P1339    1.0000 0.62136  0.84338  0.43460  Biso   1.000  P 
  O5811    1.0000 0.73484  0.84338  0.39582  Biso   1.000  O 
  O5812    1.0000 0.64463  0.84338  0.43713  Biso   1.000  O 
  Ca2236   1.0000 0.74929  0.84338  0.42078  Biso   1.000  Ca
  P1340    1.0000 0.70404  0.84338  0.42397  Biso   1.000  P 
  O5813    1.0000 0.69200  0.84338  0.40876  Biso   1.000  O 
  O5814    1.0000 0.68949  0.84338  0.43784  Biso   1.000  O 
  Ca2237   1.0000 0.65599  0.84338  0.40568  Biso   1.000  Ca
  P1341    1.0000 0.54995  0.84338  0.42886  Biso   1.000  P 
  O5815    1.0000 0.57350  0.84338  0.42864  Biso   1.000  O 
  O5816    1.0000 0.54122  0.84338  0.41246  Biso   1.000  O 
  Ca2238   1.0000 0.53018  0.78089  0.43346  Biso   1.000  Ca
  P1342    1.0000 0.50386  0.78089  0.40561  Biso   1.000  P 
  O5817    1.0000 0.64039  0.78089  0.44439  Biso   1.000  O 
  O5818    1.0000 0.73060  0.78089  0.40309  Biso   1.000  O 
  Ca2239   1.0000 0.62593  0.78089  0.41943  Biso   1.000  Ca
  P1343    1.0000 0.67119  0.78089  0.41624  Biso   1.000  P 
  O5819    1.0000 0.68322  0.78089  0.43146  Biso   1.000  O 
  O5820    1.0000 0.68573  0.78089  0.40237  Biso   1.000  O 
  Ca2240   1.0000 0.71922  0.78089  0.43454  Biso   1.000  Ca
  P1344    1.0000 0.57528  0.78089  0.41135  Biso   1.000  P 
  O5821    1.0000 0.55172  0.78089  0.41157  Biso   1.000  O 
  O5822    1.0000 0.58400  0.78089  0.42775  Biso   1.000  O 
  O5823    1.0000 0.62511  0.77438  0.39300  Biso   1.000  O 
  O5824    1.0000 0.62511  0.83687  0.39300  Biso   1.000  O 
  H447     1.0000 0.62511  0.75420  0.39300  Biso   1.000  H 
  H448     1.0000 0.62522  0.81669  0.39295  Biso   1.000  H 
  O5825    1.0000 0.73942  0.86585  0.47982  Biso   1.000  O 
  O5826    1.0000 0.59286  0.86585  0.47817  Biso   1.000  O 
  O5827    1.0000 0.66805  0.86585  0.49208  Biso   1.000  O 
  O5828    1.0000 0.63580  0.80335  0.46882  Biso   1.000  O 
  O5829    1.0000 0.53236  0.80335  0.47047  Biso   1.000  O 
  O5830    1.0000 0.70717  0.80335  0.45657  Biso   1.000  O 
  O5831    1.0000 0.63580  0.75842  0.46882  Biso   1.000  O 
  O5832    1.0000 0.53236  0.75842  0.47047  Biso   1.000  O 
  O5833    1.0000 0.70717  0.75842  0.45657  Biso   1.000  O 
  O5834    1.0000 0.73942  0.82093  0.47982  Biso   1.000  O 
  O5835    1.0000 0.59286  0.82093  0.47817  Biso   1.000  O 
  O5836    1.0000 0.66805  0.82093  0.49208  Biso   1.000  O 
  Ca2241   1.0000 0.66678  0.87445  0.44721  Biso   1.000  Ca
  Ca2242   1.0000 0.58344  0.81196  0.44722  Biso   1.000  Ca
  Ca2243   1.0000 0.58344  0.87482  0.44722  Biso   1.000  Ca
  Ca2244   1.0000 0.66678  0.81231  0.44721  Biso   1.000  Ca
  Ca2245   1.0000 0.72006  0.84338  0.46097  Biso   1.000  Ca
  P1345    1.0000 0.74636  0.84338  0.48881  Biso   1.000  P 
  O5837    1.0000 0.60984  0.84338  0.45004  Biso   1.000  O 
  O5838    1.0000 0.51963  0.84338  0.49134  Biso   1.000  O 
  Ca2246   1.0000 0.62429  0.84338  0.47500  Biso   1.000  Ca
  P1346    1.0000 0.57904  0.84338  0.47819  Biso   1.000  P 
  O5839    1.0000 0.56700  0.84338  0.46298  Biso   1.000  O 
  O5840    1.0000 0.56449  0.84338  0.49206  Biso   1.000  O 
  Ca2247   1.0000 0.53099  0.84338  0.45990  Biso   1.000  Ca
  P1347    1.0000 0.67495  0.84338  0.48308  Biso   1.000  P 
  O5841    1.0000 0.69850  0.84338  0.48285  Biso   1.000  O 
  O5842    1.0000 0.66622  0.84338  0.46667  Biso   1.000  O 
  Ca2248   1.0000 0.65518  0.78089  0.48768  Biso   1.000  Ca
  P1348    1.0000 0.62886  0.78089  0.45983  Biso   1.000  P 
  O5843    1.0000 0.51539  0.78089  0.49861  Biso   1.000  O 
  O5844    1.0000 0.60560  0.78089  0.45731  Biso   1.000  O 
  Ca2249   1.0000 0.50093  0.78089  0.47365  Biso   1.000  Ca
  P1349    1.0000 0.54619  0.78089  0.47046  Biso   1.000  P 
  O5845    1.0000 0.55822  0.78089  0.48568  Biso   1.000  O 
  O5846    1.0000 0.56073  0.78089  0.45658  Biso   1.000  O 
  Ca2250   1.0000 0.59422  0.78089  0.48875  Biso   1.000  Ca
  P1350    1.0000 0.70028  0.78089  0.46557  Biso   1.000  P 
  O5847    1.0000 0.67672  0.78089  0.46579  Biso   1.000  O 
  O5848    1.0000 0.70900  0.78089  0.48197  Biso   1.000  O 
  O5849    1.0000 0.50011  0.77438  0.44722  Biso   1.000  O 
  O5850    1.0000 0.50011  0.83687  0.44722  Biso   1.000  O 
  H449     1.0000 0.50011  0.75420  0.44722  Biso   1.000  H 
  H450     1.0000 0.50022  0.81669  0.44717  Biso   1.000  H 
  O5851    1.0000 0.61442  0.86585  0.53404  Biso   1.000  O 
  O5852    1.0000 0.71786  0.86585  0.53239  Biso   1.000  O 
  O5853    1.0000 0.54305  0.86585  0.54629  Biso   1.000  O 
  O5854    1.0000 0.51080  0.80335  0.52304  Biso   1.000  O 
  O5855    1.0000 0.65736  0.80335  0.52469  Biso   1.000  O 
  O5856    1.0000 0.58217  0.80335  0.51079  Biso   1.000  O 
  O5857    1.0000 0.51080  0.75842  0.52304  Biso   1.000  O 
  O5858    1.0000 0.65736  0.75842  0.52469  Biso   1.000  O 
  O5859    1.0000 0.58217  0.75842  0.51079  Biso   1.000  O 
  O5860    1.0000 0.61442  0.82093  0.53404  Biso   1.000  O 
  O5861    1.0000 0.71786  0.82093  0.53239  Biso   1.000  O 
  O5862    1.0000 0.54305  0.82093  0.54629  Biso   1.000  O 
  Ca2251   1.0000 0.54178  0.87445  0.50143  Biso   1.000  Ca
  Ca2252   1.0000 0.70844  0.81196  0.50144  Biso   1.000  Ca
  Ca2253   1.0000 0.70844  0.87482  0.50144  Biso   1.000  Ca
  Ca2254   1.0000 0.54178  0.81231  0.50143  Biso   1.000  Ca
  Ca2255   1.0000 0.59506  0.84338  0.51519  Biso   1.000  Ca
  P1351    1.0000 0.62136  0.84338  0.54303  Biso   1.000  P 
  O5863    1.0000 0.73484  0.84338  0.50426  Biso   1.000  O 
  O5864    1.0000 0.64463  0.84338  0.54556  Biso   1.000  O 
  Ca2256   1.0000 0.74929  0.84338  0.52922  Biso   1.000  Ca
  P1352    1.0000 0.70404  0.84338  0.53241  Biso   1.000  P 
  O5865    1.0000 0.69200  0.84338  0.51720  Biso   1.000  O 
  O5866    1.0000 0.68949  0.84338  0.54628  Biso   1.000  O 
  Ca2257   1.0000 0.65599  0.84338  0.51412  Biso   1.000  Ca
  P1353    1.0000 0.54995  0.84338  0.53729  Biso   1.000  P 
  O5867    1.0000 0.57350  0.84338  0.53707  Biso   1.000  O 
  O5868    1.0000 0.54122  0.84338  0.52089  Biso   1.000  O 
  Ca2258   1.0000 0.53018  0.78089  0.54190  Biso   1.000  Ca
  P1354    1.0000 0.50386  0.78089  0.51405  Biso   1.000  P 
  O5869    1.0000 0.64039  0.78089  0.55283  Biso   1.000  O 
  O5870    1.0000 0.73060  0.78089  0.51152  Biso   1.000  O 
  Ca2259   1.0000 0.62593  0.78089  0.52786  Biso   1.000  Ca
  P1355    1.0000 0.67119  0.78089  0.52468  Biso   1.000  P 
  O5871    1.0000 0.68322  0.78089  0.53989  Biso   1.000  O 
  O5872    1.0000 0.68573  0.78089  0.51080  Biso   1.000  O 
  Ca2260   1.0000 0.71922  0.78089  0.54297  Biso   1.000  Ca
  P1356    1.0000 0.57528  0.78089  0.51979  Biso   1.000  P 
  O5873    1.0000 0.55172  0.78089  0.52001  Biso   1.000  O 
  O5874    1.0000 0.58400  0.78089  0.53619  Biso   1.000  O 
  O5875    1.0000 0.62511  0.77438  0.50143  Biso   1.000  O 
  O5876    1.0000 0.62511  0.83687  0.50143  Biso   1.000  O 
  H451     1.0000 0.62511  0.75420  0.50143  Biso   1.000  H 
  H452     1.0000 0.62522  0.81669  0.50139  Biso   1.000  H 
  O5877    1.0000 0.73942  0.86585  0.58826  Biso   1.000  O 
  O5878    1.0000 0.59286  0.86585  0.58661  Biso   1.000  O 
  O5879    1.0000 0.66805  0.86585  0.60051  Biso   1.000  O 
  O5880    1.0000 0.63580  0.80335  0.57726  Biso   1.000  O 
  O5881    1.0000 0.53236  0.80335  0.57891  Biso   1.000  O 
  O5882    1.0000 0.70717  0.80335  0.56500  Biso   1.000  O 
  O5883    1.0000 0.63580  0.75842  0.57726  Biso   1.000  O 
  O5884    1.0000 0.53236  0.75842  0.57891  Biso   1.000  O 
  O5885    1.0000 0.70717  0.75842  0.56500  Biso   1.000  O 
  O5886    1.0000 0.73942  0.82093  0.58826  Biso   1.000  O 
  O5887    1.0000 0.59286  0.82093  0.58661  Biso   1.000  O 
  O5888    1.0000 0.66805  0.82093  0.60051  Biso   1.000  O 
  Ca2261   1.0000 0.66678  0.87445  0.55565  Biso   1.000  Ca
  Ca2262   1.0000 0.58344  0.81196  0.55565  Biso   1.000  Ca
  Ca2263   1.0000 0.58344  0.87482  0.55565  Biso   1.000  Ca
  Ca2264   1.0000 0.66678  0.81231  0.55565  Biso   1.000  Ca
  Ca2265   1.0000 0.72006  0.84338  0.56941  Biso   1.000  Ca
  P1357    1.0000 0.74636  0.84338  0.59725  Biso   1.000  P 
  O5889    1.0000 0.60984  0.84338  0.55847  Biso   1.000  O 
  O5890    1.0000 0.51963  0.84338  0.59978  Biso   1.000  O 
  Ca2266   1.0000 0.62429  0.84338  0.58343  Biso   1.000  Ca
  P1358    1.0000 0.57904  0.84338  0.58662  Biso   1.000  P 
  O5891    1.0000 0.56700  0.84338  0.57141  Biso   1.000  O 
  O5892    1.0000 0.56449  0.84338  0.60050  Biso   1.000  O 
  Ca2267   1.0000 0.53099  0.84338  0.56834  Biso   1.000  Ca
  P1359    1.0000 0.67495  0.84338  0.59151  Biso   1.000  P 
  O5893    1.0000 0.69850  0.84338  0.59129  Biso   1.000  O 
  O5894    1.0000 0.66622  0.84338  0.57511  Biso   1.000  O 
  Ca2268   1.0000 0.65518  0.78089  0.59611  Biso   1.000  Ca
  P1360    1.0000 0.62886  0.78089  0.56827  Biso   1.000  P 
  O5895    1.0000 0.51539  0.78089  0.60705  Biso   1.000  O 
  O5896    1.0000 0.60560  0.78089  0.56574  Biso   1.000  O 
  Ca2269   1.0000 0.50093  0.78089  0.58208  Biso   1.000  Ca
  P1361    1.0000 0.54619  0.78089  0.57890  Biso   1.000  P 
  O5897    1.0000 0.55822  0.78089  0.59411  Biso   1.000  O 
  O5898    1.0000 0.56073  0.78089  0.56502  Biso   1.000  O 
  Ca2270   1.0000 0.59422  0.78089  0.59719  Biso   1.000  Ca
  P1362    1.0000 0.70028  0.78089  0.57400  Biso   1.000  P 
  O5899    1.0000 0.67672  0.78089  0.57423  Biso   1.000  O 
  O5900    1.0000 0.70900  0.78089  0.59041  Biso   1.000  O 
  O5901    1.0000 0.50011  0.77438  0.55565  Biso   1.000  O 
  O5902    1.0000 0.50011  0.83687  0.55565  Biso   1.000  O 
  H453     1.0000 0.50011  0.75420  0.55565  Biso   1.000  H 
  H454     1.0000 0.50022  0.81669  0.55561  Biso   1.000  H 
  O5903    1.0000 0.61442  0.86585  0.64248  Biso   1.000  O 
  O5904    1.0000 0.71786  0.86585  0.64083  Biso   1.000  O 
  O5905    1.0000 0.54305  0.86585  0.65473  Biso   1.000  O 
  O5906    1.0000 0.51080  0.80335  0.63147  Biso   1.000  O 
  O5907    1.0000 0.65736  0.80335  0.63313  Biso   1.000  O 
  O5908    1.0000 0.58217  0.80335  0.61922  Biso   1.000  O 
  O5909    1.0000 0.51080  0.75842  0.63147  Biso   1.000  O 
  O5910    1.0000 0.65736  0.75842  0.63313  Biso   1.000  O 
  O5911    1.0000 0.58217  0.75842  0.61922  Biso   1.000  O 
  O5912    1.0000 0.61442  0.82093  0.64248  Biso   1.000  O 
  O5913    1.0000 0.71786  0.82093  0.64083  Biso   1.000  O 
  O5914    1.0000 0.54305  0.82093  0.65473  Biso   1.000  O 
  Ca2271   1.0000 0.54178  0.87445  0.60986  Biso   1.000  Ca
  Ca2272   1.0000 0.70844  0.81196  0.60987  Biso   1.000  Ca
  Ca2273   1.0000 0.70844  0.87482  0.60987  Biso   1.000  Ca
  Ca2274   1.0000 0.54178  0.81231  0.60986  Biso   1.000  Ca
  Ca2275   1.0000 0.59506  0.84338  0.62363  Biso   1.000  Ca
  P1363    1.0000 0.62136  0.84338  0.65147  Biso   1.000  P 
  O5915    1.0000 0.73484  0.84338  0.61269  Biso   1.000  O 
  O5916    1.0000 0.64463  0.84338  0.65400  Biso   1.000  O 
  Ca2276   1.0000 0.74929  0.84338  0.63765  Biso   1.000  Ca
  P1364    1.0000 0.70404  0.84338  0.64084  Biso   1.000  P 
  O5917    1.0000 0.69200  0.84338  0.62563  Biso   1.000  O 
  O5918    1.0000 0.68949  0.84338  0.65471  Biso   1.000  O 
  Ca2277   1.0000 0.65599  0.84338  0.62255  Biso   1.000  Ca
  P1365    1.0000 0.54995  0.84338  0.64573  Biso   1.000  P 
  O5919    1.0000 0.57350  0.84338  0.64551  Biso   1.000  O 
  O5920    1.0000 0.54122  0.84338  0.62933  Biso   1.000  O 
  Ca2278   1.0000 0.53018  0.78089  0.65033  Biso   1.000  Ca
  P1366    1.0000 0.50386  0.78089  0.62248  Biso   1.000  P 
  O5921    1.0000 0.64039  0.78089  0.66127  Biso   1.000  O 
  O5922    1.0000 0.73060  0.78089  0.61996  Biso   1.000  O 
  Ca2279   1.0000 0.62593  0.78089  0.63630  Biso   1.000  Ca
  P1367    1.0000 0.67119  0.78089  0.63312  Biso   1.000  P 
  O5923    1.0000 0.68322  0.78089  0.64833  Biso   1.000  O 
  O5924    1.0000 0.68573  0.78089  0.61924  Biso   1.000  O 
  Ca2280   1.0000 0.71922  0.78089  0.65141  Biso   1.000  Ca
  P1368    1.0000 0.57528  0.78089  0.62822  Biso   1.000  P 
  O5925    1.0000 0.55172  0.78089  0.62845  Biso   1.000  O 
  O5926    1.0000 0.58400  0.78089  0.64462  Biso   1.000  O 
  O5927    1.0000 0.62511  0.77438  0.60987  Biso   1.000  O 
  O5928    1.0000 0.62511  0.83687  0.60987  Biso   1.000  O 
  H455     1.0000 0.62511  0.75420  0.60987  Biso   1.000  H 
  H456     1.0000 0.62522  0.81669  0.60982  Biso   1.000  H 
  O5929    1.0000 0.73942  0.86585  0.69670  Biso   1.000  O 
  O5930    1.0000 0.59286  0.86585  0.69504  Biso   1.000  O 
  O5931    1.0000 0.66805  0.86585  0.70895  Biso   1.000  O 
  O5932    1.0000 0.63580  0.80335  0.68569  Biso   1.000  O 
  O5933    1.0000 0.53236  0.80335  0.68734  Biso   1.000  O 
  O5934    1.0000 0.70717  0.80335  0.67344  Biso   1.000  O 
  O5935    1.0000 0.63580  0.75842  0.68569  Biso   1.000  O 
  O5936    1.0000 0.53236  0.75842  0.68734  Biso   1.000  O 
  O5937    1.0000 0.70717  0.75842  0.67344  Biso   1.000  O 
  O5938    1.0000 0.73942  0.82093  0.69670  Biso   1.000  O 
  O5939    1.0000 0.59286  0.82093  0.69504  Biso   1.000  O 
  O5940    1.0000 0.66805  0.82093  0.70895  Biso   1.000  O 
  Ca2281   1.0000 0.66678  0.87445  0.66408  Biso   1.000  Ca
  Ca2282   1.0000 0.58344  0.81196  0.66409  Biso   1.000  Ca
  Ca2283   1.0000 0.58344  0.87482  0.66409  Biso   1.000  Ca
  Ca2284   1.0000 0.66678  0.81231  0.66408  Biso   1.000  Ca
  Ca2285   1.0000 0.72006  0.84338  0.67784  Biso   1.000  Ca
  P1369    1.0000 0.74636  0.84338  0.70569  Biso   1.000  P 
  O5941    1.0000 0.60984  0.84338  0.66691  Biso   1.000  O 
  O5942    1.0000 0.51963  0.84338  0.70822  Biso   1.000  O 
  Ca2286   1.0000 0.62429  0.84338  0.69187  Biso   1.000  Ca
  P1370    1.0000 0.57904  0.84338  0.69506  Biso   1.000  P 
  O5943    1.0000 0.56700  0.84338  0.67985  Biso   1.000  O 
  O5944    1.0000 0.56449  0.84338  0.70893  Biso   1.000  O 
  Ca2287   1.0000 0.53099  0.84338  0.67677  Biso   1.000  Ca
  P1371    1.0000 0.67495  0.84338  0.69995  Biso   1.000  P 
  O5945    1.0000 0.69850  0.84338  0.69973  Biso   1.000  O 
  O5946    1.0000 0.66622  0.84338  0.68355  Biso   1.000  O 
  Ca2288   1.0000 0.65518  0.78089  0.70455  Biso   1.000  Ca
  P1372    1.0000 0.62886  0.78089  0.67670  Biso   1.000  P 
  O5947    1.0000 0.51539  0.78089  0.71548  Biso   1.000  O 
  O5948    1.0000 0.60560  0.78089  0.67418  Biso   1.000  O 
  Ca2289   1.0000 0.50093  0.78089  0.69052  Biso   1.000  Ca
  P1373    1.0000 0.54619  0.78089  0.68733  Biso   1.000  P 
  O5949    1.0000 0.55822  0.78089  0.70255  Biso   1.000  O 
  O5950    1.0000 0.56073  0.78089  0.67346  Biso   1.000  O 
  Ca2290   1.0000 0.59422  0.78089  0.70563  Biso   1.000  Ca
  P1374    1.0000 0.70028  0.78089  0.68244  Biso   1.000  P 
  O5951    1.0000 0.67672  0.78089  0.68266  Biso   1.000  O 
  O5952    1.0000 0.70900  0.78089  0.69884  Biso   1.000  O 
  O5953    1.0000 0.50011  0.77438  0.66409  Biso   1.000  O 
  O5954    1.0000 0.50011  0.83687  0.66409  Biso   1.000  O 
  H457     1.0000 0.50011  0.75420  0.66409  Biso   1.000  H 
  H458     1.0000 0.50022  0.81669  0.66404  Biso   1.000  H 
  O5955    1.0000 0.61442  0.86585  0.75091  Biso   1.000  O 
  O5956    1.0000 0.71786  0.86585  0.74926  Biso   1.000  O 
  O5957    1.0000 0.54305  0.86585  0.76317  Biso   1.000  O 
  O5958    1.0000 0.51080  0.80335  0.73991  Biso   1.000  O 
  O5959    1.0000 0.65736  0.80335  0.74156  Biso   1.000  O 
  O5960    1.0000 0.58217  0.80335  0.72766  Biso   1.000  O 
  O5961    1.0000 0.51080  0.75842  0.73991  Biso   1.000  O 
  O5962    1.0000 0.65736  0.75842  0.74156  Biso   1.000  O 
  O5963    1.0000 0.58217  0.75842  0.72766  Biso   1.000  O 
  O5964    1.0000 0.61442  0.82093  0.75091  Biso   1.000  O 
  O5965    1.0000 0.71786  0.82093  0.74926  Biso   1.000  O 
  O5966    1.0000 0.54305  0.82093  0.76317  Biso   1.000  O 
  Ca2291   1.0000 0.54178  0.87445  0.71830  Biso   1.000  Ca
  Ca2292   1.0000 0.70844  0.81196  0.71831  Biso   1.000  Ca
  Ca2293   1.0000 0.70844  0.87482  0.71831  Biso   1.000  Ca
  Ca2294   1.0000 0.54178  0.81231  0.71830  Biso   1.000  Ca
  Ca2295   1.0000 0.59506  0.84338  0.73206  Biso   1.000  Ca
  P1375    1.0000 0.62136  0.84338  0.75990  Biso   1.000  P 
  O5967    1.0000 0.73484  0.84338  0.72113  Biso   1.000  O 
  O5968    1.0000 0.64463  0.84338  0.76243  Biso   1.000  O 
  Ca2296   1.0000 0.74929  0.84338  0.74609  Biso   1.000  Ca
  P1376    1.0000 0.70404  0.84338  0.74928  Biso   1.000  P 
  O5969    1.0000 0.69200  0.84338  0.73407  Biso   1.000  O 
  O5970    1.0000 0.68949  0.84338  0.76315  Biso   1.000  O 
  Ca2297   1.0000 0.65599  0.84338  0.73099  Biso   1.000  Ca
  P1377    1.0000 0.54995  0.84338  0.75417  Biso   1.000  P 
  O5971    1.0000 0.57350  0.84338  0.75394  Biso   1.000  O 
  O5972    1.0000 0.54122  0.84338  0.73776  Biso   1.000  O 
  Ca2298   1.0000 0.53018  0.78089  0.75877  Biso   1.000  Ca
  P1378    1.0000 0.50386  0.78089  0.73092  Biso   1.000  P 
  O5973    1.0000 0.64039  0.78089  0.76970  Biso   1.000  O 
  O5974    1.0000 0.73060  0.78089  0.72840  Biso   1.000  O 
  Ca2299   1.0000 0.62593  0.78089  0.74474  Biso   1.000  Ca
  P1379    1.0000 0.67119  0.78089  0.74155  Biso   1.000  P 
  O5975    1.0000 0.68322  0.78089  0.75677  Biso   1.000  O 
  O5976    1.0000 0.68573  0.78089  0.72767  Biso   1.000  O 
  Ca2300   1.0000 0.71922  0.78089  0.75984  Biso   1.000  Ca
  P1380    1.0000 0.57528  0.78089  0.73666  Biso   1.000  P 
  O5977    1.0000 0.55172  0.78089  0.73688  Biso   1.000  O 
  O5978    1.0000 0.58400  0.78089  0.75306  Biso   1.000  O 
  O5979    1.0000 0.62511  0.77438  0.71831  Biso   1.000  O 
  O5980    1.0000 0.62511  0.83687  0.71831  Biso   1.000  O 
  H459     1.0000 0.62511  0.75420  0.71831  Biso   1.000  H 
  H460     1.0000 0.62522  0.81669  0.71826  Biso   1.000  H 
  O5981    1.0000 0.73942  0.99085  0.26295  Biso   1.000  O 
  O5982    1.0000 0.59286  0.99085  0.26130  Biso   1.000  O 
  O5983    1.0000 0.66805  0.99085  0.27520  Biso   1.000  O 
  O5984    1.0000 0.63580  0.92835  0.25195  Biso   1.000  O 
  O5985    1.0000 0.53236  0.92835  0.25360  Biso   1.000  O 
  O5986    1.0000 0.70717  0.92835  0.23970  Biso   1.000  O 
  O5987    1.0000 0.63580  0.88342  0.25195  Biso   1.000  O 
  O5988    1.0000 0.53236  0.88342  0.25360  Biso   1.000  O 
  O5989    1.0000 0.70717  0.88342  0.23970  Biso   1.000  O 
  O5990    1.0000 0.73942  0.94593  0.26295  Biso   1.000  O 
  O5991    1.0000 0.59286  0.94593  0.26130  Biso   1.000  O 
  O5992    1.0000 0.66805  0.94593  0.27520  Biso   1.000  O 
  Ca2301   1.0000 0.66678  0.99945  0.23034  Biso   1.000  Ca
  Ca2302   1.0000 0.58344  0.93696  0.23035  Biso   1.000  Ca
  Ca2303   1.0000 0.58344  0.99982  0.23035  Biso   1.000  Ca
  Ca2304   1.0000 0.66678  0.93731  0.23034  Biso   1.000  Ca
  Ca2305   1.0000 0.72006  0.96838  0.24410  Biso   1.000  Ca
  P1381    1.0000 0.74636  0.96838  0.27194  Biso   1.000  P 
  O5993    1.0000 0.60984  0.96838  0.23317  Biso   1.000  O 
  O5994    1.0000 0.51963  0.96838  0.27447  Biso   1.000  O 
  Ca2306   1.0000 0.62429  0.96838  0.25813  Biso   1.000  Ca
  P1382    1.0000 0.57904  0.96838  0.26132  Biso   1.000  P 
  O5995    1.0000 0.56700  0.96838  0.24611  Biso   1.000  O 
  O5996    1.0000 0.56449  0.96838  0.27519  Biso   1.000  O 
  Ca2307   1.0000 0.53099  0.96838  0.24303  Biso   1.000  Ca
  P1383    1.0000 0.67495  0.96838  0.26620  Biso   1.000  P 
  O5997    1.0000 0.69850  0.96838  0.26598  Biso   1.000  O 
  O5998    1.0000 0.66622  0.96838  0.24980  Biso   1.000  O 
  Ca2308   1.0000 0.65518  0.90589  0.27081  Biso   1.000  Ca
  P1384    1.0000 0.62886  0.90589  0.24296  Biso   1.000  P 
  O5999    1.0000 0.51539  0.90589  0.28174  Biso   1.000  O 
  O6000    1.0000 0.60560  0.90589  0.24043  Biso   1.000  O 
  Ca2309   1.0000 0.50093  0.90589  0.25677  Biso   1.000  Ca
  P1385    1.0000 0.54619  0.90589  0.25359  Biso   1.000  P 
  O6001    1.0000 0.55822  0.90589  0.26880  Biso   1.000  O 
  O6002    1.0000 0.56073  0.90589  0.23971  Biso   1.000  O 
  Ca2310   1.0000 0.59422  0.90589  0.27188  Biso   1.000  Ca
  P1386    1.0000 0.70028  0.90589  0.24870  Biso   1.000  P 
  O6003    1.0000 0.67672  0.90589  0.24892  Biso   1.000  O 
  O6004    1.0000 0.70900  0.90589  0.26510  Biso   1.000  O 
  O6005    1.0000 0.50011  0.89938  0.23034  Biso   1.000  O 
  O6006    1.0000 0.50011  0.96187  0.23034  Biso   1.000  O 
  H461     1.0000 0.50011  0.87920  0.23034  Biso   1.000  H 
  H462     1.0000 0.50022  0.94169  0.23030  Biso   1.000  H 
  O6007    1.0000 0.61442  0.99085  0.31717  Biso   1.000  O 
  O6008    1.0000 0.71786  0.99085  0.31552  Biso   1.000  O 
  O6009    1.0000 0.54305  0.99085  0.32942  Biso   1.000  O 
  O6010    1.0000 0.51080  0.92835  0.30617  Biso   1.000  O 
  O6011    1.0000 0.65736  0.92835  0.30782  Biso   1.000  O 
  O6012    1.0000 0.58217  0.92835  0.29391  Biso   1.000  O 
  O6013    1.0000 0.51080  0.88342  0.30617  Biso   1.000  O 
  O6014    1.0000 0.65736  0.88342  0.30782  Biso   1.000  O 
  O6015    1.0000 0.58217  0.88342  0.29391  Biso   1.000  O 
  O6016    1.0000 0.61442  0.94593  0.31717  Biso   1.000  O 
  O6017    1.0000 0.71786  0.94593  0.31552  Biso   1.000  O 
  O6018    1.0000 0.54305  0.94593  0.32942  Biso   1.000  O 
  Ca2311   1.0000 0.54178  0.99945  0.28456  Biso   1.000  Ca
  Ca2312   1.0000 0.70844  0.93696  0.28456  Biso   1.000  Ca
  Ca2313   1.0000 0.70844  0.99982  0.28456  Biso   1.000  Ca
  Ca2314   1.0000 0.54178  0.93731  0.28456  Biso   1.000  Ca
  Ca2315   1.0000 0.59506  0.96838  0.29832  Biso   1.000  Ca
  P1387    1.0000 0.62136  0.96838  0.32616  Biso   1.000  P 
  O6019    1.0000 0.73484  0.96838  0.28738  Biso   1.000  O 
  O6020    1.0000 0.64463  0.96838  0.32869  Biso   1.000  O 
  Ca2316   1.0000 0.74929  0.96838  0.31234  Biso   1.000  Ca
  P1388    1.0000 0.70404  0.96838  0.31554  Biso   1.000  P 
  O6021    1.0000 0.69200  0.96838  0.30033  Biso   1.000  O 
  O6022    1.0000 0.68949  0.96838  0.32941  Biso   1.000  O 
  Ca2317   1.0000 0.65599  0.96838  0.29725  Biso   1.000  Ca
  P1389    1.0000 0.54995  0.96838  0.32042  Biso   1.000  P 
  O6023    1.0000 0.57350  0.96838  0.32020  Biso   1.000  O 
  O6024    1.0000 0.54122  0.96838  0.30402  Biso   1.000  O 
  Ca2318   1.0000 0.53018  0.90589  0.32502  Biso   1.000  Ca
  P1390    1.0000 0.50386  0.90589  0.29718  Biso   1.000  P 
  O6025    1.0000 0.64039  0.90589  0.33596  Biso   1.000  O 
  O6026    1.0000 0.73060  0.90589  0.29465  Biso   1.000  O 
  Ca2319   1.0000 0.62593  0.90589  0.31099  Biso   1.000  Ca
  P1391    1.0000 0.67119  0.90589  0.30781  Biso   1.000  P 
  O6027    1.0000 0.68322  0.90589  0.32302  Biso   1.000  O 
  O6028    1.0000 0.68573  0.90589  0.29393  Biso   1.000  O 
  Ca2320   1.0000 0.71922  0.90589  0.32610  Biso   1.000  Ca
  P1392    1.0000 0.57528  0.90589  0.30291  Biso   1.000  P 
  O6029    1.0000 0.55172  0.90589  0.30314  Biso   1.000  O 
  O6030    1.0000 0.58400  0.90589  0.31932  Biso   1.000  O 
  O6031    1.0000 0.62511  0.89938  0.28456  Biso   1.000  O 
  O6032    1.0000 0.62511  0.96187  0.28456  Biso   1.000  O 
  H463     1.0000 0.62511  0.87920  0.28456  Biso   1.000  H 
  H464     1.0000 0.62522  0.94169  0.28452  Biso   1.000  H 
  O6033    1.0000 0.73942  0.99085  0.37139  Biso   1.000  O 
  O6034    1.0000 0.59286  0.99085  0.36974  Biso   1.000  O 
  O6035    1.0000 0.66805  0.99085  0.38364  Biso   1.000  O 
  O6036    1.0000 0.63580  0.92835  0.36038  Biso   1.000  O 
  O6037    1.0000 0.53236  0.92835  0.36204  Biso   1.000  O 
  O6038    1.0000 0.70717  0.92835  0.34813  Biso   1.000  O 
  O6039    1.0000 0.63580  0.88342  0.36038  Biso   1.000  O 
  O6040    1.0000 0.53236  0.88342  0.36204  Biso   1.000  O 
  O6041    1.0000 0.70717  0.88342  0.34813  Biso   1.000  O 
  O6042    1.0000 0.73942  0.94593  0.37139  Biso   1.000  O 
  O6043    1.0000 0.59286  0.94593  0.36974  Biso   1.000  O 
  O6044    1.0000 0.66805  0.94593  0.38364  Biso   1.000  O 
  Ca2321   1.0000 0.66678  0.99945  0.33877  Biso   1.000  Ca
  Ca2322   1.0000 0.58344  0.93696  0.33878  Biso   1.000  Ca
  Ca2323   1.0000 0.58344  0.99982  0.33878  Biso   1.000  Ca
  Ca2324   1.0000 0.66678  0.93731  0.33877  Biso   1.000  Ca
  Ca2325   1.0000 0.72006  0.96838  0.35254  Biso   1.000  Ca
  P1393    1.0000 0.74636  0.96838  0.38038  Biso   1.000  P 
  O6045    1.0000 0.60984  0.96838  0.34160  Biso   1.000  O 
  O6046    1.0000 0.51963  0.96838  0.38291  Biso   1.000  O 
  Ca2326   1.0000 0.62429  0.96838  0.36656  Biso   1.000  Ca
  P1394    1.0000 0.57904  0.96838  0.36975  Biso   1.000  P 
  O6047    1.0000 0.56700  0.96838  0.35454  Biso   1.000  O 
  O6048    1.0000 0.56449  0.96838  0.38362  Biso   1.000  O 
  Ca2327   1.0000 0.53099  0.96838  0.35146  Biso   1.000  Ca
  P1395    1.0000 0.67495  0.96838  0.37464  Biso   1.000  P 
  O6049    1.0000 0.69850  0.96838  0.37442  Biso   1.000  O 
  O6050    1.0000 0.66622  0.96838  0.35824  Biso   1.000  O 
  Ca2328   1.0000 0.65518  0.90589  0.37924  Biso   1.000  Ca
  P1396    1.0000 0.62886  0.90589  0.35140  Biso   1.000  P 
  O6051    1.0000 0.51539  0.90589  0.39018  Biso   1.000  O 
  O6052    1.0000 0.60560  0.90589  0.34887  Biso   1.000  O 
  Ca2329   1.0000 0.50093  0.90589  0.36521  Biso   1.000  Ca
  P1397    1.0000 0.54619  0.90589  0.36203  Biso   1.000  P 
  O6053    1.0000 0.55822  0.90589  0.37724  Biso   1.000  O 
  O6054    1.0000 0.56073  0.90589  0.34815  Biso   1.000  O 
  Ca2330   1.0000 0.59422  0.90589  0.38032  Biso   1.000  Ca
  P1398    1.0000 0.70028  0.90589  0.35713  Biso   1.000  P 
  O6055    1.0000 0.67672  0.90589  0.35736  Biso   1.000  O 
  O6056    1.0000 0.70900  0.90589  0.37353  Biso   1.000  O 
  O6057    1.0000 0.50011  0.89938  0.33878  Biso   1.000  O 
  O6058    1.0000 0.50011  0.96187  0.33878  Biso   1.000  O 
  H465     1.0000 0.50011  0.87920  0.33878  Biso   1.000  H 
  H466     1.0000 0.50022  0.94169  0.33873  Biso   1.000  H 
  O6059    1.0000 0.61442  0.99085  0.42561  Biso   1.000  O 
  O6060    1.0000 0.71786  0.99085  0.42395  Biso   1.000  O 
  O6061    1.0000 0.54305  0.99085  0.43786  Biso   1.000  O 
  O6062    1.0000 0.51080  0.92835  0.41460  Biso   1.000  O 
  O6063    1.0000 0.65736  0.92835  0.41625  Biso   1.000  O 
  O6064    1.0000 0.58217  0.92835  0.40235  Biso   1.000  O 
  O6065    1.0000 0.51080  0.88342  0.41460  Biso   1.000  O 
  O6066    1.0000 0.65736  0.88342  0.41625  Biso   1.000  O 
  O6067    1.0000 0.58217  0.88342  0.40235  Biso   1.000  O 
  O6068    1.0000 0.61442  0.94593  0.42561  Biso   1.000  O 
  O6069    1.0000 0.71786  0.94593  0.42395  Biso   1.000  O 
  O6070    1.0000 0.54305  0.94593  0.43786  Biso   1.000  O 
  Ca2331   1.0000 0.54178  0.99945  0.39299  Biso   1.000  Ca
  Ca2332   1.0000 0.70844  0.93696  0.39300  Biso   1.000  Ca
  Ca2333   1.0000 0.70844  0.99982  0.39300  Biso   1.000  Ca
  Ca2334   1.0000 0.54178  0.93731  0.39299  Biso   1.000  Ca
  Ca2335   1.0000 0.59506  0.96838  0.40675  Biso   1.000  Ca
  P1399    1.0000 0.62136  0.96838  0.43460  Biso   1.000  P 
  O6071    1.0000 0.73484  0.96838  0.39582  Biso   1.000  O 
  O6072    1.0000 0.64463  0.96838  0.43713  Biso   1.000  O 
  Ca2336   1.0000 0.74929  0.96838  0.42078  Biso   1.000  Ca
  P1400    1.0000 0.70404  0.96838  0.42397  Biso   1.000  P 
  O6073    1.0000 0.69200  0.96838  0.40876  Biso   1.000  O 
  O6074    1.0000 0.68949  0.96838  0.43784  Biso   1.000  O 
  Ca2337   1.0000 0.65599  0.96838  0.40568  Biso   1.000  Ca
  P1401    1.0000 0.54995  0.96838  0.42886  Biso   1.000  P 
  O6075    1.0000 0.57350  0.96838  0.42864  Biso   1.000  O 
  O6076    1.0000 0.54122  0.96838  0.41246  Biso   1.000  O 
  Ca2338   1.0000 0.53018  0.90589  0.43346  Biso   1.000  Ca
  P1402    1.0000 0.50386  0.90589  0.40561  Biso   1.000  P 
  O6077    1.0000 0.64039  0.90589  0.44439  Biso   1.000  O 
  O6078    1.0000 0.73060  0.90589  0.40309  Biso   1.000  O 
  Ca2339   1.0000 0.62593  0.90589  0.41943  Biso   1.000  Ca
  P1403    1.0000 0.67119  0.90589  0.41624  Biso   1.000  P 
  O6079    1.0000 0.68322  0.90589  0.43146  Biso   1.000  O 
  O6080    1.0000 0.68573  0.90589  0.40237  Biso   1.000  O 
  Ca2340   1.0000 0.71922  0.90589  0.43454  Biso   1.000  Ca
  P1404    1.0000 0.57528  0.90589  0.41135  Biso   1.000  P 
  O6081    1.0000 0.55172  0.90589  0.41157  Biso   1.000  O 
  O6082    1.0000 0.58400  0.90589  0.42775  Biso   1.000  O 
  O6083    1.0000 0.62511  0.89938  0.39300  Biso   1.000  O 
  O6084    1.0000 0.62511  0.96187  0.39300  Biso   1.000  O 
  H467     1.0000 0.62511  0.87920  0.39300  Biso   1.000  H 
  H468     1.0000 0.62522  0.94169  0.39295  Biso   1.000  H 
  O6085    1.0000 0.73942  0.99085  0.47982  Biso   1.000  O 
  O6086    1.0000 0.59286  0.99085  0.47817  Biso   1.000  O 
  O6087    1.0000 0.66805  0.99085  0.49208  Biso   1.000  O 
  O6088    1.0000 0.63580  0.92835  0.46882  Biso   1.000  O 
  O6089    1.0000 0.53236  0.92835  0.47047  Biso   1.000  O 
  O6090    1.0000 0.70717  0.92835  0.45657  Biso   1.000  O 
  O6091    1.0000 0.63580  0.88342  0.46882  Biso   1.000  O 
  O6092    1.0000 0.53236  0.88342  0.47047  Biso   1.000  O 
  O6093    1.0000 0.70717  0.88342  0.45657  Biso   1.000  O 
  O6094    1.0000 0.73942  0.94593  0.47982  Biso   1.000  O 
  O6095    1.0000 0.59286  0.94593  0.47817  Biso   1.000  O 
  O6096    1.0000 0.66805  0.94593  0.49208  Biso   1.000  O 
  Ca2341   1.0000 0.66678  0.99945  0.44721  Biso   1.000  Ca
  Ca2342   1.0000 0.58344  0.93696  0.44722  Biso   1.000  Ca
  Ca2343   1.0000 0.58344  0.99982  0.44722  Biso   1.000  Ca
  Ca2344   1.0000 0.66678  0.93731  0.44721  Biso   1.000  Ca
  Ca2345   1.0000 0.72006  0.96838  0.46097  Biso   1.000  Ca
  P1405    1.0000 0.74636  0.96838  0.48881  Biso   1.000  P 
  O6097    1.0000 0.60984  0.96838  0.45004  Biso   1.000  O 
  O6098    1.0000 0.51963  0.96838  0.49134  Biso   1.000  O 
  Ca2346   1.0000 0.62429  0.96838  0.47500  Biso   1.000  Ca
  P1406    1.0000 0.57904  0.96838  0.47819  Biso   1.000  P 
  O6099    1.0000 0.56700  0.96838  0.46298  Biso   1.000  O 
  O6100    1.0000 0.56449  0.96838  0.49206  Biso   1.000  O 
  Ca2347   1.0000 0.53099  0.96838  0.45990  Biso   1.000  Ca
  P1407    1.0000 0.67495  0.96838  0.48308  Biso   1.000  P 
  O6101    1.0000 0.69850  0.96838  0.48285  Biso   1.000  O 
  O6102    1.0000 0.66622  0.96838  0.46667  Biso   1.000  O 
  Ca2348   1.0000 0.65518  0.90589  0.48768  Biso   1.000  Ca
  P1408    1.0000 0.62886  0.90589  0.45983  Biso   1.000  P 
  O6103    1.0000 0.51539  0.90589  0.49861  Biso   1.000  O 
  O6104    1.0000 0.60560  0.90589  0.45731  Biso   1.000  O 
  Ca2349   1.0000 0.50093  0.90589  0.47365  Biso   1.000  Ca
  P1409    1.0000 0.54619  0.90589  0.47046  Biso   1.000  P 
  O6105    1.0000 0.55822  0.90589  0.48568  Biso   1.000  O 
  O6106    1.0000 0.56073  0.90589  0.45658  Biso   1.000  O 
  Ca2350   1.0000 0.59422  0.90589  0.48875  Biso   1.000  Ca
  P1410    1.0000 0.70028  0.90589  0.46557  Biso   1.000  P 
  O6107    1.0000 0.67672  0.90589  0.46579  Biso   1.000  O 
  O6108    1.0000 0.70900  0.90589  0.48197  Biso   1.000  O 
  O6109    1.0000 0.50011  0.89938  0.44722  Biso   1.000  O 
  O6110    1.0000 0.50011  0.96187  0.44722  Biso   1.000  O 
  H469     1.0000 0.50011  0.87920  0.44722  Biso   1.000  H 
  H470     1.0000 0.50022  0.94169  0.44717  Biso   1.000  H 
  O6111    1.0000 0.61442  0.99085  0.53404  Biso   1.000  O 
  O6112    1.0000 0.71786  0.99085  0.53239  Biso   1.000  O 
  O6113    1.0000 0.54305  0.99085  0.54629  Biso   1.000  O 
  O6114    1.0000 0.51080  0.92835  0.52304  Biso   1.000  O 
  O6115    1.0000 0.65736  0.92835  0.52469  Biso   1.000  O 
  O6116    1.0000 0.58217  0.92835  0.51079  Biso   1.000  O 
  O6117    1.0000 0.51080  0.88342  0.52304  Biso   1.000  O 
  O6118    1.0000 0.65736  0.88342  0.52469  Biso   1.000  O 
  O6119    1.0000 0.58217  0.88342  0.51079  Biso   1.000  O 
  O6120    1.0000 0.61442  0.94593  0.53404  Biso   1.000  O 
  O6121    1.0000 0.71786  0.94593  0.53239  Biso   1.000  O 
  O6122    1.0000 0.54305  0.94593  0.54629  Biso   1.000  O 
  Ca2351   1.0000 0.54178  0.99945  0.50143  Biso   1.000  Ca
  Ca2352   1.0000 0.70844  0.93696  0.50144  Biso   1.000  Ca
  Ca2353   1.0000 0.70844  0.99982  0.50144  Biso   1.000  Ca
  Ca2354   1.0000 0.54178  0.93731  0.50143  Biso   1.000  Ca
  Ca2355   1.0000 0.59506  0.96838  0.51519  Biso   1.000  Ca
  P1411    1.0000 0.62136  0.96838  0.54303  Biso   1.000  P 
  O6123    1.0000 0.73484  0.96838  0.50426  Biso   1.000  O 
  O6124    1.0000 0.64463  0.96838  0.54556  Biso   1.000  O 
  Ca2356   1.0000 0.74929  0.96838  0.52922  Biso   1.000  Ca
  P1412    1.0000 0.70404  0.96838  0.53241  Biso   1.000  P 
  O6125    1.0000 0.69200  0.96838  0.51720  Biso   1.000  O 
  O6126    1.0000 0.68949  0.96838  0.54628  Biso   1.000  O 
  Ca2357   1.0000 0.65599  0.96838  0.51412  Biso   1.000  Ca
  P1413    1.0000 0.54995  0.96838  0.53729  Biso   1.000  P 
  O6127    1.0000 0.57350  0.96838  0.53707  Biso   1.000  O 
  O6128    1.0000 0.54122  0.96838  0.52089  Biso   1.000  O 
  Ca2358   1.0000 0.53018  0.90589  0.54190  Biso   1.000  Ca
  P1414    1.0000 0.50386  0.90589  0.51405  Biso   1.000  P 
  O6129    1.0000 0.64039  0.90589  0.55283  Biso   1.000  O 
  O6130    1.0000 0.73060  0.90589  0.51152  Biso   1.000  O 
  Ca2359   1.0000 0.62593  0.90589  0.52786  Biso   1.000  Ca
  P1415    1.0000 0.67119  0.90589  0.52468  Biso   1.000  P 
  O6131    1.0000 0.68322  0.90589  0.53989  Biso   1.000  O 
  O6132    1.0000 0.68573  0.90589  0.51080  Biso   1.000  O 
  Ca2360   1.0000 0.71922  0.90589  0.54297  Biso   1.000  Ca
  P1416    1.0000 0.57528  0.90589  0.51979  Biso   1.000  P 
  O6133    1.0000 0.55172  0.90589  0.52001  Biso   1.000  O 
  O6134    1.0000 0.58400  0.90589  0.53619  Biso   1.000  O 
  O6135    1.0000 0.62511  0.89938  0.50143  Biso   1.000  O 
  O6136    1.0000 0.62511  0.96187  0.50143  Biso   1.000  O 
  H471     1.0000 0.62511  0.87920  0.50143  Biso   1.000  H 
  H472     1.0000 0.62522  0.94169  0.50139  Biso   1.000  H 
  O6137    1.0000 0.73942  0.99085  0.58826  Biso   1.000  O 
  O6138    1.0000 0.59286  0.99085  0.58661  Biso   1.000  O 
  O6139    1.0000 0.66805  0.99085  0.60051  Biso   1.000  O 
  O6140    1.0000 0.63580  0.92835  0.57726  Biso   1.000  O 
  O6141    1.0000 0.53236  0.92835  0.57891  Biso   1.000  O 
  O6142    1.0000 0.70717  0.92835  0.56500  Biso   1.000  O 
  O6143    1.0000 0.63580  0.88342  0.57726  Biso   1.000  O 
  O6144    1.0000 0.53236  0.88342  0.57891  Biso   1.000  O 
  O6145    1.0000 0.70717  0.88342  0.56500  Biso   1.000  O 
  O6146    1.0000 0.73942  0.94593  0.58826  Biso   1.000  O 
  O6147    1.0000 0.59286  0.94593  0.58661  Biso   1.000  O 
  O6148    1.0000 0.66805  0.94593  0.60051  Biso   1.000  O 
  Ca2361   1.0000 0.66678  0.99945  0.55565  Biso   1.000  Ca
  Ca2362   1.0000 0.58344  0.93696  0.55565  Biso   1.000  Ca
  Ca2363   1.0000 0.58344  0.99982  0.55565  Biso   1.000  Ca
  Ca2364   1.0000 0.66678  0.93731  0.55565  Biso   1.000  Ca
  Ca2365   1.0000 0.72006  0.96838  0.56941  Biso   1.000  Ca
  P1417    1.0000 0.74636  0.96838  0.59725  Biso   1.000  P 
  O6149    1.0000 0.60984  0.96838  0.55847  Biso   1.000  O 
  O6150    1.0000 0.51963  0.96838  0.59978  Biso   1.000  O 
  Ca2366   1.0000 0.62429  0.96838  0.58343  Biso   1.000  Ca
  P1418    1.0000 0.57904  0.96838  0.58662  Biso   1.000  P 
  O6151    1.0000 0.56700  0.96838  0.57141  Biso   1.000  O 
  O6152    1.0000 0.56449  0.96838  0.60050  Biso   1.000  O 
  Ca2367   1.0000 0.53099  0.96838  0.56834  Biso   1.000  Ca
  P1419    1.0000 0.67495  0.96838  0.59151  Biso   1.000  P 
  O6153    1.0000 0.69850  0.96838  0.59129  Biso   1.000  O 
  O6154    1.0000 0.66622  0.96838  0.57511  Biso   1.000  O 
  Ca2368   1.0000 0.65518  0.90589  0.59611  Biso   1.000  Ca
  P1420    1.0000 0.62886  0.90589  0.56827  Biso   1.000  P 
  O6155    1.0000 0.51539  0.90589  0.60705  Biso   1.000  O 
  O6156    1.0000 0.60560  0.90589  0.56574  Biso   1.000  O 
  Ca2369   1.0000 0.50093  0.90589  0.58208  Biso   1.000  Ca
  P1421    1.0000 0.54619  0.90589  0.57890  Biso   1.000  P 
  O6157    1.0000 0.55822  0.90589  0.59411  Biso   1.000  O 
  O6158    1.0000 0.56073  0.90589  0.56502  Biso   1.000  O 
  Ca2370   1.0000 0.59422  0.90589  0.59719  Biso   1.000  Ca
  P1422    1.0000 0.70028  0.90589  0.57400  Biso   1.000  P 
  O6159    1.0000 0.67672  0.90589  0.57423  Biso   1.000  O 
  O6160    1.0000 0.70900  0.90589  0.59041  Biso   1.000  O 
  O6161    1.0000 0.50011  0.89938  0.55565  Biso   1.000  O 
  O6162    1.0000 0.50011  0.96187  0.55565  Biso   1.000  O 
  H473     1.0000 0.50011  0.87920  0.55565  Biso   1.000  H 
  H474     1.0000 0.50022  0.94169  0.55561  Biso   1.000  H 
  O6163    1.0000 0.61442  0.99085  0.64248  Biso   1.000  O 
  O6164    1.0000 0.71786  0.99085  0.64083  Biso   1.000  O 
  O6165    1.0000 0.54305  0.99085  0.65473  Biso   1.000  O 
  O6166    1.0000 0.51080  0.92835  0.63147  Biso   1.000  O 
  O6167    1.0000 0.65736  0.92835  0.63313  Biso   1.000  O 
  O6168    1.0000 0.58217  0.92835  0.61922  Biso   1.000  O 
  O6169    1.0000 0.51080  0.88342  0.63147  Biso   1.000  O 
  O6170    1.0000 0.65736  0.88342  0.63313  Biso   1.000  O 
  O6171    1.0000 0.58217  0.88342  0.61922  Biso   1.000  O 
  O6172    1.0000 0.61442  0.94593  0.64248  Biso   1.000  O 
  O6173    1.0000 0.71786  0.94593  0.64083  Biso   1.000  O 
  O6174    1.0000 0.54305  0.94593  0.65473  Biso   1.000  O 
  Ca2371   1.0000 0.54178  0.99945  0.60986  Biso   1.000  Ca
  Ca2372   1.0000 0.70844  0.93696  0.60987  Biso   1.000  Ca
  Ca2373   1.0000 0.70844  0.99982  0.60987  Biso   1.000  Ca
  Ca2374   1.0000 0.54178  0.93731  0.60986  Biso   1.000  Ca
  Ca2375   1.0000 0.59506  0.96838  0.62363  Biso   1.000  Ca
  P1423    1.0000 0.62136  0.96838  0.65147  Biso   1.000  P 
  O6175    1.0000 0.73484  0.96838  0.61269  Biso   1.000  O 
  O6176    1.0000 0.64463  0.96838  0.65400  Biso   1.000  O 
  Ca2376   1.0000 0.74929  0.96838  0.63765  Biso   1.000  Ca
  P1424    1.0000 0.70404  0.96838  0.64084  Biso   1.000  P 
  O6177    1.0000 0.69200  0.96838  0.62563  Biso   1.000  O 
  O6178    1.0000 0.68949  0.96838  0.65471  Biso   1.000  O 
  Ca2377   1.0000 0.65599  0.96838  0.62255  Biso   1.000  Ca
  P1425    1.0000 0.54995  0.96838  0.64573  Biso   1.000  P 
  O6179    1.0000 0.57350  0.96838  0.64551  Biso   1.000  O 
  O6180    1.0000 0.54122  0.96838  0.62933  Biso   1.000  O 
  Ca2378   1.0000 0.53018  0.90589  0.65033  Biso   1.000  Ca
  P1426    1.0000 0.50386  0.90589  0.62248  Biso   1.000  P 
  O6181    1.0000 0.64039  0.90589  0.66127  Biso   1.000  O 
  O6182    1.0000 0.73060  0.90589  0.61996  Biso   1.000  O 
  Ca2379   1.0000 0.62593  0.90589  0.63630  Biso   1.000  Ca
  P1427    1.0000 0.67119  0.90589  0.63312  Biso   1.000  P 
  O6183    1.0000 0.68322  0.90589  0.64833  Biso   1.000  O 
  O6184    1.0000 0.68573  0.90589  0.61924  Biso   1.000  O 
  Ca2380   1.0000 0.71922  0.90589  0.65141  Biso   1.000  Ca
  P1428    1.0000 0.57528  0.90589  0.62822  Biso   1.000  P 
  O6185    1.0000 0.55172  0.90589  0.62845  Biso   1.000  O 
  O6186    1.0000 0.58400  0.90589  0.64462  Biso   1.000  O 
  O6187    1.0000 0.62511  0.89938  0.60987  Biso   1.000  O 
  O6188    1.0000 0.62511  0.96187  0.60987  Biso   1.000  O 
  H475     1.0000 0.62511  0.87920  0.60987  Biso   1.000  H 
  H476     1.0000 0.62522  0.94169  0.60982  Biso   1.000  H 
  O6189    1.0000 0.73942  0.99085  0.69670  Biso   1.000  O 
  O6190    1.0000 0.59286  0.99085  0.69504  Biso   1.000  O 
  O6191    1.0000 0.66805  0.99085  0.70895  Biso   1.000  O 
  O6192    1.0000 0.63580  0.92835  0.68569  Biso   1.000  O 
  O6193    1.0000 0.53236  0.92835  0.68734  Biso   1.000  O 
  O6194    1.0000 0.70717  0.92835  0.67344  Biso   1.000  O 
  O6195    1.0000 0.63580  0.88342  0.68569  Biso   1.000  O 
  O6196    1.0000 0.53236  0.88342  0.68734  Biso   1.000  O 
  O6197    1.0000 0.70717  0.88342  0.67344  Biso   1.000  O 
  O6198    1.0000 0.73942  0.94593  0.69670  Biso   1.000  O 
  O6199    1.0000 0.59286  0.94593  0.69504  Biso   1.000  O 
  O6200    1.0000 0.66805  0.94593  0.70895  Biso   1.000  O 
  Ca2381   1.0000 0.66678  0.99945  0.66408  Biso   1.000  Ca
  Ca2382   1.0000 0.58344  0.93696  0.66409  Biso   1.000  Ca
  Ca2383   1.0000 0.58344  0.99982  0.66409  Biso   1.000  Ca
  Ca2384   1.0000 0.66678  0.93731  0.66408  Biso   1.000  Ca
  Ca2385   1.0000 0.72006  0.96838  0.67784  Biso   1.000  Ca
  P1429    1.0000 0.74636  0.96838  0.70569  Biso   1.000  P 
  O6201    1.0000 0.60984  0.96838  0.66691  Biso   1.000  O 
  O6202    1.0000 0.51963  0.96838  0.70822  Biso   1.000  O 
  Ca2386   1.0000 0.62429  0.96838  0.69187  Biso   1.000  Ca
  P1430    1.0000 0.57904  0.96838  0.69506  Biso   1.000  P 
  O6203    1.0000 0.56700  0.96838  0.67985  Biso   1.000  O 
  O6204    1.0000 0.56449  0.96838  0.70893  Biso   1.000  O 
  Ca2387   1.0000 0.53099  0.96838  0.67677  Biso   1.000  Ca
  P1431    1.0000 0.67495  0.96838  0.69995  Biso   1.000  P 
  O6205    1.0000 0.69850  0.96838  0.69973  Biso   1.000  O 
  O6206    1.0000 0.66622  0.96838  0.68355  Biso   1.000  O 
  Ca2388   1.0000 0.65518  0.90589  0.70455  Biso   1.000  Ca
  P1432    1.0000 0.62886  0.90589  0.67670  Biso   1.000  P 
  O6207    1.0000 0.51539  0.90589  0.71548  Biso   1.000  O 
  O6208    1.0000 0.60560  0.90589  0.67418  Biso   1.000  O 
  Ca2389   1.0000 0.50093  0.90589  0.69052  Biso   1.000  Ca
  P1433    1.0000 0.54619  0.90589  0.68733  Biso   1.000  P 
  O6209    1.0000 0.55822  0.90589  0.70255  Biso   1.000  O 
  O6210    1.0000 0.56073  0.90589  0.67346  Biso   1.000  O 
  Ca2390   1.0000 0.59422  0.90589  0.70563  Biso   1.000  Ca
  P1434    1.0000 0.70028  0.90589  0.68244  Biso   1.000  P 
  O6211    1.0000 0.67672  0.90589  0.68266  Biso   1.000  O 
  O6212    1.0000 0.70900  0.90589  0.69884  Biso   1.000  O 
  O6213    1.0000 0.50011  0.89938  0.66409  Biso   1.000  O 
  O6214    1.0000 0.50011  0.96187  0.66409  Biso   1.000  O 
  H477     1.0000 0.50011  0.87920  0.66409  Biso   1.000  H 
  H478     1.0000 0.50022  0.94169  0.66404  Biso   1.000  H 
  O6215    1.0000 0.61442  0.99085  0.75091  Biso   1.000  O 
  O6216    1.0000 0.71786  0.99085  0.74926  Biso   1.000  O 
  O6217    1.0000 0.54305  0.99085  0.76317  Biso   1.000  O 
  O6218    1.0000 0.51080  0.92835  0.73991  Biso   1.000  O 
  O6219    1.0000 0.65736  0.92835  0.74156  Biso   1.000  O 
  O6220    1.0000 0.58217  0.92835  0.72766  Biso   1.000  O 
  O6221    1.0000 0.51080  0.88342  0.73991  Biso   1.000  O 
  O6222    1.0000 0.65736  0.88342  0.74156  Biso   1.000  O 
  O6223    1.0000 0.58217  0.88342  0.72766  Biso   1.000  O 
  O6224    1.0000 0.61442  0.94593  0.75091  Biso   1.000  O 
  O6225    1.0000 0.71786  0.94593  0.74926  Biso   1.000  O 
  O6226    1.0000 0.54305  0.94593  0.76317  Biso   1.000  O 
  Ca2391   1.0000 0.54178  0.99945  0.71830  Biso   1.000  Ca
  Ca2392   1.0000 0.70844  0.93696  0.71831  Biso   1.000  Ca
  Ca2393   1.0000 0.70844  0.99982  0.71831  Biso   1.000  Ca
  Ca2394   1.0000 0.54178  0.93731  0.71830  Biso   1.000  Ca
  Ca2395   1.0000 0.59506  0.96838  0.73206  Biso   1.000  Ca
  P1435    1.0000 0.62136  0.96838  0.75990  Biso   1.000  P 
  O6227    1.0000 0.73484  0.96838  0.72113  Biso   1.000  O 
  O6228    1.0000 0.64463  0.96838  0.76243  Biso   1.000  O 
  Ca2396   1.0000 0.74929  0.96838  0.74609  Biso   1.000  Ca
  P1436    1.0000 0.70404  0.96838  0.74928  Biso   1.000  P 
  O6229    1.0000 0.69200  0.96838  0.73407  Biso   1.000  O 
  O6230    1.0000 0.68949  0.96838  0.76315  Biso   1.000  O 
  Ca2397   1.0000 0.65599  0.96838  0.73099  Biso   1.000  Ca
  P1437    1.0000 0.54995  0.96838  0.75417  Biso   1.000  P 
  O6231    1.0000 0.57350  0.96838  0.75394  Biso   1.000  O 
  O6232    1.0000 0.54122  0.96838  0.73776  Biso   1.000  O 
  Ca2398   1.0000 0.53018  0.90589  0.75877  Biso   1.000  Ca
  P1438    1.0000 0.50386  0.90589  0.73092  Biso   1.000  P 
  O6233    1.0000 0.64039  0.90589  0.76970  Biso   1.000  O 
  O6234    1.0000 0.73060  0.90589  0.72840  Biso   1.000  O 
  Ca2399   1.0000 0.62593  0.90589  0.74474  Biso   1.000  Ca
  P1439    1.0000 0.67119  0.90589  0.74155  Biso   1.000  P 
  O6235    1.0000 0.68322  0.90589  0.75677  Biso   1.000  O 
  O6236    1.0000 0.68573  0.90589  0.72767  Biso   1.000  O 
  Ca2400   1.0000 0.71922  0.90589  0.75984  Biso   1.000  Ca
  P1440    1.0000 0.57528  0.90589  0.73666  Biso   1.000  P 
  O6237    1.0000 0.55172  0.90589  0.73688  Biso   1.000  O 
  O6238    1.0000 0.58400  0.90589  0.75306  Biso   1.000  O 
  O6239    1.0000 0.62511  0.89938  0.71831  Biso   1.000  O 
  O6240    1.0000 0.62511  0.96187  0.71831  Biso   1.000  O 
  H479     1.0000 0.62511  0.87920  0.71831  Biso   1.000  H 
  H480     1.0000 0.62522  0.94169  0.71826  Biso   1.000  H 
  O6241    1.0000 0.98942  0.11585  0.26295  Biso   1.000  O 
  O6242    1.0000 0.84286  0.11585  0.26130  Biso   1.000  O 
  O6243    1.0000 0.91805  0.11585  0.27520  Biso   1.000  O 
  O6244    1.0000 0.88580  0.05335  0.25195  Biso   1.000  O 
  O6245    1.0000 0.78236  0.05335  0.25360  Biso   1.000  O 
  O6246    1.0000 0.95717  0.05335  0.23970  Biso   1.000  O 
  O6247    1.0000 0.88580  0.00842  0.25195  Biso   1.000  O 
  O6248    1.0000 0.78236  0.00842  0.25360  Biso   1.000  O 
  O6249    1.0000 0.95717  0.00842  0.23970  Biso   1.000  O 
  O6250    1.0000 0.98942  0.07093  0.26295  Biso   1.000  O 
  O6251    1.0000 0.84286  0.07093  0.26130  Biso   1.000  O 
  O6252    1.0000 0.91805  0.07093  0.27520  Biso   1.000  O 
  Ca2401   1.0000 0.91678  0.12445  0.23034  Biso   1.000  Ca
  Ca2402   1.0000 0.83344  0.06196  0.23035  Biso   1.000  Ca
  Ca2403   1.0000 0.83344  0.12482  0.23035  Biso   1.000  Ca
  Ca2404   1.0000 0.91678  0.06231  0.23034  Biso   1.000  Ca
  Ca2405   1.0000 0.97006  0.09338  0.24410  Biso   1.000  Ca
  P1441    1.0000 0.99636  0.09338  0.27194  Biso   1.000  P 
  O6253    1.0000 0.85984  0.09338  0.23317  Biso   1.000  O 
  O6254    1.0000 0.76963  0.09338  0.27447  Biso   1.000  O 
  Ca2406   1.0000 0.87429  0.09338  0.25813  Biso   1.000  Ca
  P1442    1.0000 0.82904  0.09338  0.26132  Biso   1.000  P 
  O6255    1.0000 0.81700  0.09338  0.24611  Biso   1.000  O 
  O6256    1.0000 0.81449  0.09338  0.27519  Biso   1.000  O 
  Ca2407   1.0000 0.78099  0.09338  0.24303  Biso   1.000  Ca
  P1443    1.0000 0.92495  0.09338  0.26620  Biso   1.000  P 
  O6257    1.0000 0.94850  0.09338  0.26598  Biso   1.000  O 
  O6258    1.0000 0.91622  0.09338  0.24980  Biso   1.000  O 
  Ca2408   1.0000 0.90518  0.03089  0.27081  Biso   1.000  Ca
  P1444    1.0000 0.87886  0.03089  0.24296  Biso   1.000  P 
  O6259    1.0000 0.76539  0.03089  0.28174  Biso   1.000  O 
  O6260    1.0000 0.85560  0.03089  0.24043  Biso   1.000  O 
  Ca2409   1.0000 0.75093  0.03089  0.25677  Biso   1.000  Ca
  P1445    1.0000 0.79619  0.03089  0.25359  Biso   1.000  P 
  O6261    1.0000 0.80822  0.03089  0.26880  Biso   1.000  O 
  O6262    1.0000 0.81073  0.03089  0.23971  Biso   1.000  O 
  Ca2410   1.0000 0.84422  0.03089  0.27188  Biso   1.000  Ca
  P1446    1.0000 0.95028  0.03089  0.24870  Biso   1.000  P 
  O6263    1.0000 0.92672  0.03089  0.24892  Biso   1.000  O 
  O6264    1.0000 0.95900  0.03089  0.26510  Biso   1.000  O 
  O6265    1.0000 0.75011  0.02438  0.23034  Biso   1.000  O 
  O6266    1.0000 0.75011  0.08687  0.23034  Biso   1.000  O 
  H481     1.0000 0.75011  0.00420  0.23034  Biso   1.000  H 
  H482     1.0000 0.75022  0.06669  0.23030  Biso   1.000  H 
  O6267    1.0000 0.86442  0.11585  0.31717  Biso   1.000  O 
  O6268    1.0000 0.96786  0.11585  0.31552  Biso   1.000  O 
  O6269    1.0000 0.79305  0.11585  0.32942  Biso   1.000  O 
  O6270    1.0000 0.76080  0.05335  0.30617  Biso   1.000  O 
  O6271    1.0000 0.90736  0.05335  0.30782  Biso   1.000  O 
  O6272    1.0000 0.83217  0.05335  0.29391  Biso   1.000  O 
  O6273    1.0000 0.76080  0.00842  0.30617  Biso   1.000  O 
  O6274    1.0000 0.90736  0.00842  0.30782  Biso   1.000  O 
  O6275    1.0000 0.83217  0.00842  0.29391  Biso   1.000  O 
  O6276    1.0000 0.86442  0.07093  0.31717  Biso   1.000  O 
  O6277    1.0000 0.96786  0.07093  0.31552  Biso   1.000  O 
  O6278    1.0000 0.79305  0.07093  0.32942  Biso   1.000  O 
  Ca2411   1.0000 0.79178  0.12445  0.28456  Biso   1.000  Ca
  Ca2412   1.0000 0.95844  0.06196  0.28456  Biso   1.000  Ca
  Ca2413   1.0000 0.95844  0.12482  0.28456  Biso   1.000  Ca
  Ca2414   1.0000 0.79178  0.06231  0.28456  Biso   1.000  Ca
  Ca2415   1.0000 0.84506  0.09338  0.29832  Biso   1.000  Ca
  P1447    1.0000 0.87136  0.09338  0.32616  Biso   1.000  P 
  O6279    1.0000 0.98484  0.09338  0.28738  Biso   1.000  O 
  O6280    1.0000 0.89463  0.09338  0.32869  Biso   1.000  O 
  Ca2416   1.0000 0.99929  0.09338  0.31234  Biso   1.000  Ca
  P1448    1.0000 0.95404  0.09338  0.31554  Biso   1.000  P 
  O6281    1.0000 0.94200  0.09338  0.30033  Biso   1.000  O 
  O6282    1.0000 0.93949  0.09338  0.32941  Biso   1.000  O 
  Ca2417   1.0000 0.90599  0.09338  0.29725  Biso   1.000  Ca
  P1449    1.0000 0.79995  0.09338  0.32042  Biso   1.000  P 
  O6283    1.0000 0.82350  0.09338  0.32020  Biso   1.000  O 
  O6284    1.0000 0.79122  0.09338  0.30402  Biso   1.000  O 
  Ca2418   1.0000 0.78018  0.03089  0.32502  Biso   1.000  Ca
  P1450    1.0000 0.75386  0.03089  0.29718  Biso   1.000  P 
  O6285    1.0000 0.89039  0.03089  0.33596  Biso   1.000  O 
  O6286    1.0000 0.98060  0.03089  0.29465  Biso   1.000  O 
  Ca2419   1.0000 0.87593  0.03089  0.31099  Biso   1.000  Ca
  P1451    1.0000 0.92119  0.03089  0.30781  Biso   1.000  P 
  O6287    1.0000 0.93322  0.03089  0.32302  Biso   1.000  O 
  O6288    1.0000 0.93573  0.03089  0.29393  Biso   1.000  O 
  Ca2420   1.0000 0.96922  0.03089  0.32610  Biso   1.000  Ca
  P1452    1.0000 0.82528  0.03089  0.30291  Biso   1.000  P 
  O6289    1.0000 0.80172  0.03089  0.30314  Biso   1.000  O 
  O6290    1.0000 0.83400  0.03089  0.31932  Biso   1.000  O 
  O6291    1.0000 0.87511  0.02438  0.28456  Biso   1.000  O 
  O6292    1.0000 0.87511  0.08687  0.28456  Biso   1.000  O 
  H483     1.0000 0.87511  0.00420  0.28456  Biso   1.000  H 
  H484     1.0000 0.87522  0.06669  0.28452  Biso   1.000  H 
  O6293    1.0000 0.98942  0.11585  0.37139  Biso   1.000  O 
  O6294    1.0000 0.84286  0.11585  0.36974  Biso   1.000  O 
  O6295    1.0000 0.91805  0.11585  0.38364  Biso   1.000  O 
  O6296    1.0000 0.88580  0.05335  0.36038  Biso   1.000  O 
  O6297    1.0000 0.78236  0.05335  0.36204  Biso   1.000  O 
  O6298    1.0000 0.95717  0.05335  0.34813  Biso   1.000  O 
  O6299    1.0000 0.88580  0.00842  0.36038  Biso   1.000  O 
  O6300    1.0000 0.78236  0.00842  0.36204  Biso   1.000  O 
  O6301    1.0000 0.95717  0.00842  0.34813  Biso   1.000  O 
  O6302    1.0000 0.98942  0.07093  0.37139  Biso   1.000  O 
  O6303    1.0000 0.84286  0.07093  0.36974  Biso   1.000  O 
  O6304    1.0000 0.91805  0.07093  0.38364  Biso   1.000  O 
  Ca2421   1.0000 0.91678  0.12445  0.33877  Biso   1.000  Ca
  Ca2422   1.0000 0.83344  0.06196  0.33878  Biso   1.000  Ca
  Ca2423   1.0000 0.83344  0.12482  0.33878  Biso   1.000  Ca
  Ca2424   1.0000 0.91678  0.06231  0.33877  Biso   1.000  Ca
  Ca2425   1.0000 0.97006  0.09338  0.35254  Biso   1.000  Ca
  P1453    1.0000 0.99636  0.09338  0.38038  Biso   1.000  P 
  O6305    1.0000 0.85984  0.09338  0.34160  Biso   1.000  O 
  O6306    1.0000 0.76963  0.09338  0.38291  Biso   1.000  O 
  Ca2426   1.0000 0.87429  0.09338  0.36656  Biso   1.000  Ca
  P1454    1.0000 0.82904  0.09338  0.36975  Biso   1.000  P 
  O6307    1.0000 0.81700  0.09338  0.35454  Biso   1.000  O 
  O6308    1.0000 0.81449  0.09338  0.38362  Biso   1.000  O 
  Ca2427   1.0000 0.78099  0.09338  0.35146  Biso   1.000  Ca
  P1455    1.0000 0.92495  0.09338  0.37464  Biso   1.000  P 
  O6309    1.0000 0.94850  0.09338  0.37442  Biso   1.000  O 
  O6310    1.0000 0.91622  0.09338  0.35824  Biso   1.000  O 
  Ca2428   1.0000 0.90518  0.03089  0.37924  Biso   1.000  Ca
  P1456    1.0000 0.87886  0.03089  0.35140  Biso   1.000  P 
  O6311    1.0000 0.76539  0.03089  0.39018  Biso   1.000  O 
  O6312    1.0000 0.85560  0.03089  0.34887  Biso   1.000  O 
  Ca2429   1.0000 0.75093  0.03089  0.36521  Biso   1.000  Ca
  P1457    1.0000 0.79619  0.03089  0.36203  Biso   1.000  P 
  O6313    1.0000 0.80822  0.03089  0.37724  Biso   1.000  O 
  O6314    1.0000 0.81073  0.03089  0.34815  Biso   1.000  O 
  Ca2430   1.0000 0.84422  0.03089  0.38032  Biso   1.000  Ca
  P1458    1.0000 0.95028  0.03089  0.35713  Biso   1.000  P 
  O6315    1.0000 0.92672  0.03089  0.35736  Biso   1.000  O 
  O6316    1.0000 0.95900  0.03089  0.37353  Biso   1.000  O 
  O6317    1.0000 0.75011  0.02438  0.33878  Biso   1.000  O 
  O6318    1.0000 0.75011  0.08687  0.33878  Biso   1.000  O 
  H485     1.0000 0.75011  0.00420  0.33878  Biso   1.000  H 
  H486     1.0000 0.75022  0.06669  0.33873  Biso   1.000  H 
  O6319    1.0000 0.86442  0.11585  0.42561  Biso   1.000  O 
  O6320    1.0000 0.96786  0.11585  0.42395  Biso   1.000  O 
  O6321    1.0000 0.79305  0.11585  0.43786  Biso   1.000  O 
  O6322    1.0000 0.76080  0.05335  0.41460  Biso   1.000  O 
  O6323    1.0000 0.90736  0.05335  0.41625  Biso   1.000  O 
  O6324    1.0000 0.83217  0.05335  0.40235  Biso   1.000  O 
  O6325    1.0000 0.76080  0.00842  0.41460  Biso   1.000  O 
  O6326    1.0000 0.90736  0.00842  0.41625  Biso   1.000  O 
  O6327    1.0000 0.83217  0.00842  0.40235  Biso   1.000  O 
  O6328    1.0000 0.86442  0.07093  0.42561  Biso   1.000  O 
  O6329    1.0000 0.96786  0.07093  0.42395  Biso   1.000  O 
  O6330    1.0000 0.79305  0.07093  0.43786  Biso   1.000  O 
  Ca2431   1.0000 0.79178  0.12445  0.39299  Biso   1.000  Ca
  Ca2432   1.0000 0.95844  0.06196  0.39300  Biso   1.000  Ca
  Ca2433   1.0000 0.95844  0.12482  0.39300  Biso   1.000  Ca
  Ca2434   1.0000 0.79178  0.06231  0.39299  Biso   1.000  Ca
  Ca2435   1.0000 0.84506  0.09338  0.40675  Biso   1.000  Ca
  P1459    1.0000 0.87136  0.09338  0.43460  Biso   1.000  P 
  O6331    1.0000 0.98484  0.09338  0.39582  Biso   1.000  O 
  O6332    1.0000 0.89463  0.09338  0.43713  Biso   1.000  O 
  Ca2436   1.0000 0.99929  0.09338  0.42078  Biso   1.000  Ca
  P1460    1.0000 0.95404  0.09338  0.42397  Biso   1.000  P 
  O6333    1.0000 0.94200  0.09338  0.40876  Biso   1.000  O 
  O6334    1.0000 0.93949  0.09338  0.43784  Biso   1.000  O 
  Ca2437   1.0000 0.90599  0.09338  0.40568  Biso   1.000  Ca
  P1461    1.0000 0.79995  0.09338  0.42886  Biso   1.000  P 
  O6335    1.0000 0.82350  0.09338  0.42864  Biso   1.000  O 
  O6336    1.0000 0.79122  0.09338  0.41246  Biso   1.000  O 
  Ca2438   1.0000 0.78018  0.03089  0.43346  Biso   1.000  Ca
  P1462    1.0000 0.75386  0.03089  0.40561  Biso   1.000  P 
  O6337    1.0000 0.89039  0.03089  0.44439  Biso   1.000  O 
  O6338    1.0000 0.98060  0.03089  0.40309  Biso   1.000  O 
  Ca2439   1.0000 0.87593  0.03089  0.41943  Biso   1.000  Ca
  P1463    1.0000 0.92119  0.03089  0.41624  Biso   1.000  P 
  O6339    1.0000 0.93322  0.03089  0.43146  Biso   1.000  O 
  O6340    1.0000 0.93573  0.03089  0.40237  Biso   1.000  O 
  Ca2440   1.0000 0.96922  0.03089  0.43454  Biso   1.000  Ca
  P1464    1.0000 0.82528  0.03089  0.41135  Biso   1.000  P 
  O6341    1.0000 0.80172  0.03089  0.41157  Biso   1.000  O 
  O6342    1.0000 0.83400  0.03089  0.42775  Biso   1.000  O 
  O6343    1.0000 0.87511  0.02438  0.39300  Biso   1.000  O 
  O6344    1.0000 0.87511  0.08687  0.39300  Biso   1.000  O 
  H487     1.0000 0.87511  0.00420  0.39300  Biso   1.000  H 
  H488     1.0000 0.87522  0.06669  0.39295  Biso   1.000  H 
  O6345    1.0000 0.98942  0.11585  0.47982  Biso   1.000  O 
  O6346    1.0000 0.84286  0.11585  0.47817  Biso   1.000  O 
  O6347    1.0000 0.91805  0.11585  0.49208  Biso   1.000  O 
  O6348    1.0000 0.88580  0.05335  0.46882  Biso   1.000  O 
  O6349    1.0000 0.78236  0.05335  0.47047  Biso   1.000  O 
  O6350    1.0000 0.95717  0.05335  0.45657  Biso   1.000  O 
  O6351    1.0000 0.88580  0.00842  0.46882  Biso   1.000  O 
  O6352    1.0000 0.78236  0.00842  0.47047  Biso   1.000  O 
  O6353    1.0000 0.95717  0.00842  0.45657  Biso   1.000  O 
  O6354    1.0000 0.98942  0.07093  0.47982  Biso   1.000  O 
  O6355    1.0000 0.84286  0.07093  0.47817  Biso   1.000  O 
  O6356    1.0000 0.91805  0.07093  0.49208  Biso   1.000  O 
  Ca2441   1.0000 0.91678  0.12445  0.44721  Biso   1.000  Ca
  Ca2442   1.0000 0.83344  0.06196  0.44722  Biso   1.000  Ca
  Ca2443   1.0000 0.83344  0.12482  0.44722  Biso   1.000  Ca
  Ca2444   1.0000 0.91678  0.06231  0.44721  Biso   1.000  Ca
  Ca2445   1.0000 0.97006  0.09338  0.46097  Biso   1.000  Ca
  P1465    1.0000 0.99636  0.09338  0.48881  Biso   1.000  P 
  O6357    1.0000 0.85984  0.09338  0.45004  Biso   1.000  O 
  O6358    1.0000 0.76963  0.09338  0.49134  Biso   1.000  O 
  Ca2446   1.0000 0.87429  0.09338  0.47500  Biso   1.000  Ca
  P1466    1.0000 0.82904  0.09338  0.47819  Biso   1.000  P 
  O6359    1.0000 0.81700  0.09338  0.46298  Biso   1.000  O 
  O6360    1.0000 0.81449  0.09338  0.49206  Biso   1.000  O 
  Ca2447   1.0000 0.78099  0.09338  0.45990  Biso   1.000  Ca
  P1467    1.0000 0.92495  0.09338  0.48308  Biso   1.000  P 
  O6361    1.0000 0.94850  0.09338  0.48285  Biso   1.000  O 
  O6362    1.0000 0.91622  0.09338  0.46667  Biso   1.000  O 
  Ca2448   1.0000 0.90518  0.03089  0.48768  Biso   1.000  Ca
  P1468    1.0000 0.87886  0.03089  0.45983  Biso   1.000  P 
  O6363    1.0000 0.76539  0.03089  0.49861  Biso   1.000  O 
  O6364    1.0000 0.85560  0.03089  0.45731  Biso   1.000  O 
  Ca2449   1.0000 0.75093  0.03089  0.47365  Biso   1.000  Ca
  P1469    1.0000 0.79619  0.03089  0.47046  Biso   1.000  P 
  O6365    1.0000 0.80822  0.03089  0.48568  Biso   1.000  O 
  O6366    1.0000 0.81073  0.03089  0.45658  Biso   1.000  O 
  Ca2450   1.0000 0.84422  0.03089  0.48875  Biso   1.000  Ca
  P1470    1.0000 0.95028  0.03089  0.46557  Biso   1.000  P 
  O6367    1.0000 0.92672  0.03089  0.46579  Biso   1.000  O 
  O6368    1.0000 0.95900  0.03089  0.48197  Biso   1.000  O 
  O6369    1.0000 0.75011  0.02438  0.44722  Biso   1.000  O 
  O6370    1.0000 0.75011  0.08687  0.44722  Biso   1.000  O 
  H489     1.0000 0.75011  0.00420  0.44722  Biso   1.000  H 
  H490     1.0000 0.75022  0.06669  0.44717  Biso   1.000  H 
  O6371    1.0000 0.86442  0.11585  0.53404  Biso   1.000  O 
  O6372    1.0000 0.96786  0.11585  0.53239  Biso   1.000  O 
  O6373    1.0000 0.79305  0.11585  0.54629  Biso   1.000  O 
  O6374    1.0000 0.76080  0.05335  0.52304  Biso   1.000  O 
  O6375    1.0000 0.90736  0.05335  0.52469  Biso   1.000  O 
  O6376    1.0000 0.83217  0.05335  0.51079  Biso   1.000  O 
  O6377    1.0000 0.76080  0.00842  0.52304  Biso   1.000  O 
  O6378    1.0000 0.90736  0.00842  0.52469  Biso   1.000  O 
  O6379    1.0000 0.83217  0.00842  0.51079  Biso   1.000  O 
  O6380    1.0000 0.86442  0.07093  0.53404  Biso   1.000  O 
  O6381    1.0000 0.96786  0.07093  0.53239  Biso   1.000  O 
  O6382    1.0000 0.79305  0.07093  0.54629  Biso   1.000  O 
  Ca2451   1.0000 0.79178  0.12445  0.50143  Biso   1.000  Ca
  Ca2452   1.0000 0.95844  0.06196  0.50144  Biso   1.000  Ca
  Ca2453   1.0000 0.95844  0.12482  0.50144  Biso   1.000  Ca
  Ca2454   1.0000 0.79178  0.06231  0.50143  Biso   1.000  Ca
  Ca2455   1.0000 0.84506  0.09338  0.51519  Biso   1.000  Ca
  P1471    1.0000 0.87136  0.09338  0.54303  Biso   1.000  P 
  O6383    1.0000 0.98484  0.09338  0.50426  Biso   1.000  O 
  O6384    1.0000 0.89463  0.09338  0.54556  Biso   1.000  O 
  Ca2456   1.0000 0.99929  0.09338  0.52922  Biso   1.000  Ca
  P1472    1.0000 0.95404  0.09338  0.53241  Biso   1.000  P 
  O6385    1.0000 0.94200  0.09338  0.51720  Biso   1.000  O 
  O6386    1.0000 0.93949  0.09338  0.54628  Biso   1.000  O 
  Ca2457   1.0000 0.90599  0.09338  0.51412  Biso   1.000  Ca
  P1473    1.0000 0.79995  0.09338  0.53729  Biso   1.000  P 
  O6387    1.0000 0.82350  0.09338  0.53707  Biso   1.000  O 
  O6388    1.0000 0.79122  0.09338  0.52089  Biso   1.000  O 
  Ca2458   1.0000 0.78018  0.03089  0.54190  Biso   1.000  Ca
  P1474    1.0000 0.75386  0.03089  0.51405  Biso   1.000  P 
  O6389    1.0000 0.89039  0.03089  0.55283  Biso   1.000  O 
  O6390    1.0000 0.98060  0.03089  0.51152  Biso   1.000  O 
  Ca2459   1.0000 0.87593  0.03089  0.52786  Biso   1.000  Ca
  P1475    1.0000 0.92119  0.03089  0.52468  Biso   1.000  P 
  O6391    1.0000 0.93322  0.03089  0.53989  Biso   1.000  O 
  O6392    1.0000 0.93573  0.03089  0.51080  Biso   1.000  O 
  Ca2460   1.0000 0.96922  0.03089  0.54297  Biso   1.000  Ca
  P1476    1.0000 0.82528  0.03089  0.51979  Biso   1.000  P 
  O6393    1.0000 0.80172  0.03089  0.52001  Biso   1.000  O 
  O6394    1.0000 0.83400  0.03089  0.53619  Biso   1.000  O 
  O6395    1.0000 0.87511  0.02438  0.50143  Biso   1.000  O 
  O6396    1.0000 0.87511  0.08687  0.50143  Biso   1.000  O 
  H491     1.0000 0.87511  0.00420  0.50143  Biso   1.000  H 
  H492     1.0000 0.87522  0.06669  0.50139  Biso   1.000  H 
  O6397    1.0000 0.98942  0.11585  0.58826  Biso   1.000  O 
  O6398    1.0000 0.84286  0.11585  0.58661  Biso   1.000  O 
  O6399    1.0000 0.91805  0.11585  0.60051  Biso   1.000  O 
  O6400    1.0000 0.88580  0.05335  0.57726  Biso   1.000  O 
  O6401    1.0000 0.78236  0.05335  0.57891  Biso   1.000  O 
  O6402    1.0000 0.95717  0.05335  0.56500  Biso   1.000  O 
  O6403    1.0000 0.88580  0.00842  0.57726  Biso   1.000  O 
  O6404    1.0000 0.78236  0.00842  0.57891  Biso   1.000  O 
  O6405    1.0000 0.95717  0.00842  0.56500  Biso   1.000  O 
  O6406    1.0000 0.98942  0.07093  0.58826  Biso   1.000  O 
  O6407    1.0000 0.84286  0.07093  0.58661  Biso   1.000  O 
  O6408    1.0000 0.91805  0.07093  0.60051  Biso   1.000  O 
  Ca2461   1.0000 0.91678  0.12445  0.55565  Biso   1.000  Ca
  Ca2462   1.0000 0.83344  0.06196  0.55565  Biso   1.000  Ca
  Ca2463   1.0000 0.83344  0.12482  0.55565  Biso   1.000  Ca
  Ca2464   1.0000 0.91678  0.06231  0.55565  Biso   1.000  Ca
  Ca2465   1.0000 0.97006  0.09338  0.56941  Biso   1.000  Ca
  P1477    1.0000 0.99636  0.09338  0.59725  Biso   1.000  P 
  O6409    1.0000 0.85984  0.09338  0.55847  Biso   1.000  O 
  O6410    1.0000 0.76963  0.09338  0.59978  Biso   1.000  O 
  Ca2466   1.0000 0.87429  0.09338  0.58343  Biso   1.000  Ca
  P1478    1.0000 0.82904  0.09338  0.58662  Biso   1.000  P 
  O6411    1.0000 0.81700  0.09338  0.57141  Biso   1.000  O 
  O6412    1.0000 0.81449  0.09338  0.60050  Biso   1.000  O 
  Ca2467   1.0000 0.78099  0.09338  0.56834  Biso   1.000  Ca
  P1479    1.0000 0.92495  0.09338  0.59151  Biso   1.000  P 
  O6413    1.0000 0.94850  0.09338  0.59129  Biso   1.000  O 
  O6414    1.0000 0.91622  0.09338  0.57511  Biso   1.000  O 
  Ca2468   1.0000 0.90518  0.03089  0.59611  Biso   1.000  Ca
  P1480    1.0000 0.87886  0.03089  0.56827  Biso   1.000  P 
  O6415    1.0000 0.76539  0.03089  0.60705  Biso   1.000  O 
  O6416    1.0000 0.85560  0.03089  0.56574  Biso   1.000  O 
  Ca2469   1.0000 0.75093  0.03089  0.58208  Biso   1.000  Ca
  P1481    1.0000 0.79619  0.03089  0.57890  Biso   1.000  P 
  O6417    1.0000 0.80822  0.03089  0.59411  Biso   1.000  O 
  O6418    1.0000 0.81073  0.03089  0.56502  Biso   1.000  O 
  Ca2470   1.0000 0.84422  0.03089  0.59719  Biso   1.000  Ca
  P1482    1.0000 0.95028  0.03089  0.57400  Biso   1.000  P 
  O6419    1.0000 0.92672  0.03089  0.57423  Biso   1.000  O 
  O6420    1.0000 0.95900  0.03089  0.59041  Biso   1.000  O 
  O6421    1.0000 0.75011  0.02438  0.55565  Biso   1.000  O 
  O6422    1.0000 0.75011  0.08687  0.55565  Biso   1.000  O 
  H493     1.0000 0.75011  0.00420  0.55565  Biso   1.000  H 
  H494     1.0000 0.75022  0.06669  0.55561  Biso   1.000  H 
  O6423    1.0000 0.86442  0.11585  0.64248  Biso   1.000  O 
  O6424    1.0000 0.96786  0.11585  0.64083  Biso   1.000  O 
  O6425    1.0000 0.79305  0.11585  0.65473  Biso   1.000  O 
  O6426    1.0000 0.76080  0.05335  0.63147  Biso   1.000  O 
  O6427    1.0000 0.90736  0.05335  0.63313  Biso   1.000  O 
  O6428    1.0000 0.83217  0.05335  0.61922  Biso   1.000  O 
  O6429    1.0000 0.76080  0.00842  0.63147  Biso   1.000  O 
  O6430    1.0000 0.90736  0.00842  0.63313  Biso   1.000  O 
  O6431    1.0000 0.83217  0.00842  0.61922  Biso   1.000  O 
  O6432    1.0000 0.86442  0.07093  0.64248  Biso   1.000  O 
  O6433    1.0000 0.96786  0.07093  0.64083  Biso   1.000  O 
  O6434    1.0000 0.79305  0.07093  0.65473  Biso   1.000  O 
  Ca2471   1.0000 0.79178  0.12445  0.60986  Biso   1.000  Ca
  Ca2472   1.0000 0.95844  0.06196  0.60987  Biso   1.000  Ca
  Ca2473   1.0000 0.95844  0.12482  0.60987  Biso   1.000  Ca
  Ca2474   1.0000 0.79178  0.06231  0.60986  Biso   1.000  Ca
  Ca2475   1.0000 0.84506  0.09338  0.62363  Biso   1.000  Ca
  P1483    1.0000 0.87136  0.09338  0.65147  Biso   1.000  P 
  O6435    1.0000 0.98484  0.09338  0.61269  Biso   1.000  O 
  O6436    1.0000 0.89463  0.09338  0.65400  Biso   1.000  O 
  Ca2476   1.0000 0.99929  0.09338  0.63765  Biso   1.000  Ca
  P1484    1.0000 0.95404  0.09338  0.64084  Biso   1.000  P 
  O6437    1.0000 0.94200  0.09338  0.62563  Biso   1.000  O 
  O6438    1.0000 0.93949  0.09338  0.65471  Biso   1.000  O 
  Ca2477   1.0000 0.90599  0.09338  0.62255  Biso   1.000  Ca
  P1485    1.0000 0.79995  0.09338  0.64573  Biso   1.000  P 
  O6439    1.0000 0.82350  0.09338  0.64551  Biso   1.000  O 
  O6440    1.0000 0.79122  0.09338  0.62933  Biso   1.000  O 
  Ca2478   1.0000 0.78018  0.03089  0.65033  Biso   1.000  Ca
  P1486    1.0000 0.75386  0.03089  0.62248  Biso   1.000  P 
  O6441    1.0000 0.89039  0.03089  0.66127  Biso   1.000  O 
  O6442    1.0000 0.98060  0.03089  0.61996  Biso   1.000  O 
  Ca2479   1.0000 0.87593  0.03089  0.63630  Biso   1.000  Ca
  P1487    1.0000 0.92119  0.03089  0.63312  Biso   1.000  P 
  O6443    1.0000 0.93322  0.03089  0.64833  Biso   1.000  O 
  O6444    1.0000 0.93573  0.03089  0.61924  Biso   1.000  O 
  Ca2480   1.0000 0.96922  0.03089  0.65141  Biso   1.000  Ca
  P1488    1.0000 0.82528  0.03089  0.62822  Biso   1.000  P 
  O6445    1.0000 0.80172  0.03089  0.62845  Biso   1.000  O 
  O6446    1.0000 0.83400  0.03089  0.64462  Biso   1.000  O 
  O6447    1.0000 0.87511  0.02438  0.60987  Biso   1.000  O 
  O6448    1.0000 0.87511  0.08687  0.60987  Biso   1.000  O 
  H495     1.0000 0.87511  0.00420  0.60987  Biso   1.000  H 
  H496     1.0000 0.87522  0.06669  0.60982  Biso   1.000  H 
  O6449    1.0000 0.98942  0.11585  0.69670  Biso   1.000  O 
  O6450    1.0000 0.84286  0.11585  0.69504  Biso   1.000  O 
  O6451    1.0000 0.91805  0.11585  0.70895  Biso   1.000  O 
  O6452    1.0000 0.88580  0.05335  0.68569  Biso   1.000  O 
  O6453    1.0000 0.78236  0.05335  0.68734  Biso   1.000  O 
  O6454    1.0000 0.95717  0.05335  0.67344  Biso   1.000  O 
  O6455    1.0000 0.88580  0.00842  0.68569  Biso   1.000  O 
  O6456    1.0000 0.78236  0.00842  0.68734  Biso   1.000  O 
  O6457    1.0000 0.95717  0.00842  0.67344  Biso   1.000  O 
  O6458    1.0000 0.98942  0.07093  0.69670  Biso   1.000  O 
  O6459    1.0000 0.84286  0.07093  0.69504  Biso   1.000  O 
  O6460    1.0000 0.91805  0.07093  0.70895  Biso   1.000  O 
  Ca2481   1.0000 0.91678  0.12445  0.66408  Biso   1.000  Ca
  Ca2482   1.0000 0.83344  0.06196  0.66409  Biso   1.000  Ca
  Ca2483   1.0000 0.83344  0.12482  0.66409  Biso   1.000  Ca
  Ca2484   1.0000 0.91678  0.06231  0.66408  Biso   1.000  Ca
  Ca2485   1.0000 0.97006  0.09338  0.67784  Biso   1.000  Ca
  P1489    1.0000 0.99636  0.09338  0.70569  Biso   1.000  P 
  O6461    1.0000 0.85984  0.09338  0.66691  Biso   1.000  O 
  O6462    1.0000 0.76963  0.09338  0.70822  Biso   1.000  O 
  Ca2486   1.0000 0.87429  0.09338  0.69187  Biso   1.000  Ca
  P1490    1.0000 0.82904  0.09338  0.69506  Biso   1.000  P 
  O6463    1.0000 0.81700  0.09338  0.67985  Biso   1.000  O 
  O6464    1.0000 0.81449  0.09338  0.70893  Biso   1.000  O 
  Ca2487   1.0000 0.78099  0.09338  0.67677  Biso   1.000  Ca
  P1491    1.0000 0.92495  0.09338  0.69995  Biso   1.000  P 
  O6465    1.0000 0.94850  0.09338  0.69973  Biso   1.000  O 
  O6466    1.0000 0.91622  0.09338  0.68355  Biso   1.000  O 
  Ca2488   1.0000 0.90518  0.03089  0.70455  Biso   1.000  Ca
  P1492    1.0000 0.87886  0.03089  0.67670  Biso   1.000  P 
  O6467    1.0000 0.76539  0.03089  0.71548  Biso   1.000  O 
  O6468    1.0000 0.85560  0.03089  0.67418  Biso   1.000  O 
  Ca2489   1.0000 0.75093  0.03089  0.69052  Biso   1.000  Ca
  P1493    1.0000 0.79619  0.03089  0.68733  Biso   1.000  P 
  O6469    1.0000 0.80822  0.03089  0.70255  Biso   1.000  O 
  O6470    1.0000 0.81073  0.03089  0.67346  Biso   1.000  O 
  Ca2490   1.0000 0.84422  0.03089  0.70563  Biso   1.000  Ca
  P1494    1.0000 0.95028  0.03089  0.68244  Biso   1.000  P 
  O6471    1.0000 0.92672  0.03089  0.68266  Biso   1.000  O 
  O6472    1.0000 0.95900  0.03089  0.69884  Biso   1.000  O 
  O6473    1.0000 0.75011  0.02438  0.66409  Biso   1.000  O 
  O6474    1.0000 0.75011  0.08687  0.66409  Biso   1.000  O 
  H497     1.0000 0.75011  0.00420  0.66409  Biso   1.000  H 
  H498     1.0000 0.75022  0.06669  0.66404  Biso   1.000  H 
  O6475    1.0000 0.86442  0.11585  0.75091  Biso   1.000  O 
  O6476    1.0000 0.96786  0.11585  0.74926  Biso   1.000  O 
  O6477    1.0000 0.79305  0.11585  0.76317  Biso   1.000  O 
  O6478    1.0000 0.76080  0.05335  0.73991  Biso   1.000  O 
  O6479    1.0000 0.90736  0.05335  0.74156  Biso   1.000  O 
  O6480    1.0000 0.83217  0.05335  0.72766  Biso   1.000  O 
  O6481    1.0000 0.76080  0.00842  0.73991  Biso   1.000  O 
  O6482    1.0000 0.90736  0.00842  0.74156  Biso   1.000  O 
  O6483    1.0000 0.83217  0.00842  0.72766  Biso   1.000  O 
  O6484    1.0000 0.86442  0.07093  0.75091  Biso   1.000  O 
  O6485    1.0000 0.96786  0.07093  0.74926  Biso   1.000  O 
  O6486    1.0000 0.79305  0.07093  0.76317  Biso   1.000  O 
  Ca2491   1.0000 0.79178  0.12445  0.71830  Biso   1.000  Ca
  Ca2492   1.0000 0.95844  0.06196  0.71831  Biso   1.000  Ca
  Ca2493   1.0000 0.95844  0.12482  0.71831  Biso   1.000  Ca
  Ca2494   1.0000 0.79178  0.06231  0.71830  Biso   1.000  Ca
  Ca2495   1.0000 0.84506  0.09338  0.73206  Biso   1.000  Ca
  P1495    1.0000 0.87136  0.09338  0.75990  Biso   1.000  P 
  O6487    1.0000 0.98484  0.09338  0.72113  Biso   1.000  O 
  O6488    1.0000 0.89463  0.09338  0.76243  Biso   1.000  O 
  Ca2496   1.0000 0.99929  0.09338  0.74609  Biso   1.000  Ca
  P1496    1.0000 0.95404  0.09338  0.74928  Biso   1.000  P 
  O6489    1.0000 0.94200  0.09338  0.73407  Biso   1.000  O 
  O6490    1.0000 0.93949  0.09338  0.76315  Biso   1.000  O 
  Ca2497   1.0000 0.90599  0.09338  0.73099  Biso   1.000  Ca
  P1497    1.0000 0.79995  0.09338  0.75417  Biso   1.000  P 
  O6491    1.0000 0.82350  0.09338  0.75394  Biso   1.000  O 
  O6492    1.0000 0.79122  0.09338  0.73776  Biso   1.000  O 
  Ca2498   1.0000 0.78018  0.03089  0.75877  Biso   1.000  Ca
  P1498    1.0000 0.75386  0.03089  0.73092  Biso   1.000  P 
  O6493    1.0000 0.89039  0.03089  0.76970  Biso   1.000  O 
  O6494    1.0000 0.98060  0.03089  0.72840  Biso   1.000  O 
  Ca2499   1.0000 0.87593  0.03089  0.74474  Biso   1.000  Ca
  P1499    1.0000 0.92119  0.03089  0.74155  Biso   1.000  P 
  O6495    1.0000 0.93322  0.03089  0.75677  Biso   1.000  O 
  O6496    1.0000 0.93573  0.03089  0.72767  Biso   1.000  O 
  Ca2500   1.0000 0.96922  0.03089  0.75984  Biso   1.000  Ca
  P1500    1.0000 0.82528  0.03089  0.73666  Biso   1.000  P 
  O6497    1.0000 0.80172  0.03089  0.73688  Biso   1.000  O 
  O6498    1.0000 0.83400  0.03089  0.75306  Biso   1.000  O 
  O6499    1.0000 0.87511  0.02438  0.71831  Biso   1.000  O 
  O6500    1.0000 0.87511  0.08687  0.71831  Biso   1.000  O 
  H499     1.0000 0.87511  0.00420  0.71831  Biso   1.000  H 
  H500     1.0000 0.87522  0.06669  0.71826  Biso   1.000  H 
  O6501    1.0000 0.98942  0.24085  0.26295  Biso   1.000  O 
  O6502    1.0000 0.84286  0.24085  0.26130  Biso   1.000  O 
  O6503    1.0000 0.91805  0.24085  0.27520  Biso   1.000  O 
  O6504    1.0000 0.88580  0.17835  0.25195  Biso   1.000  O 
  O6505    1.0000 0.78236  0.17835  0.25360  Biso   1.000  O 
  O6506    1.0000 0.95717  0.17835  0.23970  Biso   1.000  O 
  O6507    1.0000 0.88580  0.13342  0.25195  Biso   1.000  O 
  O6508    1.0000 0.78236  0.13342  0.25360  Biso   1.000  O 
  O6509    1.0000 0.95717  0.13342  0.23970  Biso   1.000  O 
  O6510    1.0000 0.98942  0.19593  0.26295  Biso   1.000  O 
  O6511    1.0000 0.84286  0.19593  0.26130  Biso   1.000  O 
  O6512    1.0000 0.91805  0.19593  0.27520  Biso   1.000  O 
  Ca2501   1.0000 0.91678  0.24945  0.23034  Biso   1.000  Ca
  Ca2502   1.0000 0.83344  0.18696  0.23035  Biso   1.000  Ca
  Ca2503   1.0000 0.83344  0.24982  0.23035  Biso   1.000  Ca
  Ca2504   1.0000 0.91678  0.18731  0.23034  Biso   1.000  Ca
  Ca2505   1.0000 0.97006  0.21838  0.24410  Biso   1.000  Ca
  P1501    1.0000 0.99636  0.21838  0.27194  Biso   1.000  P 
  O6513    1.0000 0.85984  0.21838  0.23317  Biso   1.000  O 
  O6514    1.0000 0.76963  0.21838  0.27447  Biso   1.000  O 
  Ca2506   1.0000 0.87429  0.21838  0.25813  Biso   1.000  Ca
  P1502    1.0000 0.82904  0.21838  0.26132  Biso   1.000  P 
  O6515    1.0000 0.81700  0.21838  0.24611  Biso   1.000  O 
  O6516    1.0000 0.81449  0.21838  0.27519  Biso   1.000  O 
  Ca2507   1.0000 0.78099  0.21838  0.24303  Biso   1.000  Ca
  P1503    1.0000 0.92495  0.21838  0.26620  Biso   1.000  P 
  O6517    1.0000 0.94850  0.21838  0.26598  Biso   1.000  O 
  O6518    1.0000 0.91622  0.21838  0.24980  Biso   1.000  O 
  Ca2508   1.0000 0.90518  0.15589  0.27081  Biso   1.000  Ca
  P1504    1.0000 0.87886  0.15589  0.24296  Biso   1.000  P 
  O6519    1.0000 0.76539  0.15589  0.28174  Biso   1.000  O 
  O6520    1.0000 0.85560  0.15589  0.24043  Biso   1.000  O 
  Ca2509   1.0000 0.75093  0.15589  0.25677  Biso   1.000  Ca
  P1505    1.0000 0.79619  0.15589  0.25359  Biso   1.000  P 
  O6521    1.0000 0.80822  0.15589  0.26880  Biso   1.000  O 
  O6522    1.0000 0.81073  0.15589  0.23971  Biso   1.000  O 
  Ca2510   1.0000 0.84422  0.15589  0.27188  Biso   1.000  Ca
  P1506    1.0000 0.95028  0.15589  0.24870  Biso   1.000  P 
  O6523    1.0000 0.92672  0.15589  0.24892  Biso   1.000  O 
  O6524    1.0000 0.95900  0.15589  0.26510  Biso   1.000  O 
  O6525    1.0000 0.75011  0.14938  0.23034  Biso   1.000  O 
  O6526    1.0000 0.75011  0.21187  0.23034  Biso   1.000  O 
  H501     1.0000 0.75011  0.12920  0.23034  Biso   1.000  H 
  H502     1.0000 0.75022  0.19169  0.23030  Biso   1.000  H 
  O6527    1.0000 0.86442  0.24085  0.31717  Biso   1.000  O 
  O6528    1.0000 0.96786  0.24085  0.31552  Biso   1.000  O 
  O6529    1.0000 0.79305  0.24085  0.32942  Biso   1.000  O 
  O6530    1.0000 0.76080  0.17835  0.30617  Biso   1.000  O 
  O6531    1.0000 0.90736  0.17835  0.30782  Biso   1.000  O 
  O6532    1.0000 0.83217  0.17835  0.29391  Biso   1.000  O 
  O6533    1.0000 0.76080  0.13342  0.30617  Biso   1.000  O 
  O6534    1.0000 0.90736  0.13342  0.30782  Biso   1.000  O 
  O6535    1.0000 0.83217  0.13342  0.29391  Biso   1.000  O 
  O6536    1.0000 0.86442  0.19593  0.31717  Biso   1.000  O 
  O6537    1.0000 0.96786  0.19593  0.31552  Biso   1.000  O 
  O6538    1.0000 0.79305  0.19593  0.32942  Biso   1.000  O 
  Ca2511   1.0000 0.79178  0.24945  0.28456  Biso   1.000  Ca
  Ca2512   1.0000 0.95844  0.18696  0.28456  Biso   1.000  Ca
  Ca2513   1.0000 0.95844  0.24982  0.28456  Biso   1.000  Ca
  Ca2514   1.0000 0.79178  0.18731  0.28456  Biso   1.000  Ca
  Ca2515   1.0000 0.84506  0.21838  0.29832  Biso   1.000  Ca
  P1507    1.0000 0.87136  0.21838  0.32616  Biso   1.000  P 
  O6539    1.0000 0.98484  0.21838  0.28738  Biso   1.000  O 
  O6540    1.0000 0.89463  0.21838  0.32869  Biso   1.000  O 
  Ca2516   1.0000 0.99929  0.21838  0.31234  Biso   1.000  Ca
  P1508    1.0000 0.95404  0.21838  0.31554  Biso   1.000  P 
  O6541    1.0000 0.94200  0.21838  0.30033  Biso   1.000  O 
  O6542    1.0000 0.93949  0.21838  0.32941  Biso   1.000  O 
  Ca2517   1.0000 0.90599  0.21838  0.29725  Biso   1.000  Ca
  P1509    1.0000 0.79995  0.21838  0.32042  Biso   1.000  P 
  O6543    1.0000 0.82350  0.21838  0.32020  Biso   1.000  O 
  O6544    1.0000 0.79122  0.21838  0.30402  Biso   1.000  O 
  Ca2518   1.0000 0.78018  0.15589  0.32502  Biso   1.000  Ca
  P1510    1.0000 0.75386  0.15589  0.29718  Biso   1.000  P 
  O6545    1.0000 0.89039  0.15589  0.33596  Biso   1.000  O 
  O6546    1.0000 0.98060  0.15589  0.29465  Biso   1.000  O 
  Ca2519   1.0000 0.87593  0.15589  0.31099  Biso   1.000  Ca
  P1511    1.0000 0.92119  0.15589  0.30781  Biso   1.000  P 
  O6547    1.0000 0.93322  0.15589  0.32302  Biso   1.000  O 
  O6548    1.0000 0.93573  0.15589  0.29393  Biso   1.000  O 
  Ca2520   1.0000 0.96922  0.15589  0.32610  Biso   1.000  Ca
  P1512    1.0000 0.82528  0.15589  0.30291  Biso   1.000  P 
  O6549    1.0000 0.80172  0.15589  0.30314  Biso   1.000  O 
  O6550    1.0000 0.83400  0.15589  0.31932  Biso   1.000  O 
  O6551    1.0000 0.87511  0.14938  0.28456  Biso   1.000  O 
  O6552    1.0000 0.87511  0.21187  0.28456  Biso   1.000  O 
  H503     1.0000 0.87511  0.12920  0.28456  Biso   1.000  H 
  H504     1.0000 0.87522  0.19169  0.28452  Biso   1.000  H 
  O6553    1.0000 0.98942  0.24085  0.37139  Biso   1.000  O 
  O6554    1.0000 0.84286  0.24085  0.36974  Biso   1.000  O 
  O6555    1.0000 0.91805  0.24085  0.38364  Biso   1.000  O 
  O6556    1.0000 0.88580  0.17835  0.36038  Biso   1.000  O 
  O6557    1.0000 0.78236  0.17835  0.36204  Biso   1.000  O 
  O6558    1.0000 0.95717  0.17835  0.34813  Biso   1.000  O 
  O6559    1.0000 0.88580  0.13342  0.36038  Biso   1.000  O 
  O6560    1.0000 0.78236  0.13342  0.36204  Biso   1.000  O 
  O6561    1.0000 0.95717  0.13342  0.34813  Biso   1.000  O 
  O6562    1.0000 0.98942  0.19593  0.37139  Biso   1.000  O 
  O6563    1.0000 0.84286  0.19593  0.36974  Biso   1.000  O 
  O6564    1.0000 0.91805  0.19593  0.38364  Biso   1.000  O 
  Ca2521   1.0000 0.91678  0.24945  0.33877  Biso   1.000  Ca
  Ca2522   1.0000 0.83344  0.18696  0.33878  Biso   1.000  Ca
  Ca2523   1.0000 0.83344  0.24982  0.33878  Biso   1.000  Ca
  Ca2524   1.0000 0.91678  0.18731  0.33877  Biso   1.000  Ca
  Ca2525   1.0000 0.97006  0.21838  0.35254  Biso   1.000  Ca
  P1513    1.0000 0.99636  0.21838  0.38038  Biso   1.000  P 
  O6565    1.0000 0.85984  0.21838  0.34160  Biso   1.000  O 
  O6566    1.0000 0.76963  0.21838  0.38291  Biso   1.000  O 
  Ca2526   1.0000 0.87429  0.21838  0.36656  Biso   1.000  Ca
  P1514    1.0000 0.82904  0.21838  0.36975  Biso   1.000  P 
  O6567    1.0000 0.81700  0.21838  0.35454  Biso   1.000  O 
  O6568    1.0000 0.81449  0.21838  0.38362  Biso   1.000  O 
  Ca2527   1.0000 0.78099  0.21838  0.35146  Biso   1.000  Ca
  P1515    1.0000 0.92495  0.21838  0.37464  Biso   1.000  P 
  O6569    1.0000 0.94850  0.21838  0.37442  Biso   1.000  O 
  O6570    1.0000 0.91622  0.21838  0.35824  Biso   1.000  O 
  Ca2528   1.0000 0.90518  0.15589  0.37924  Biso   1.000  Ca
  P1516    1.0000 0.87886  0.15589  0.35140  Biso   1.000  P 
  O6571    1.0000 0.76539  0.15589  0.39018  Biso   1.000  O 
  O6572    1.0000 0.85560  0.15589  0.34887  Biso   1.000  O 
  Ca2529   1.0000 0.75093  0.15589  0.36521  Biso   1.000  Ca
  P1517    1.0000 0.79619  0.15589  0.36203  Biso   1.000  P 
  O6573    1.0000 0.80822  0.15589  0.37724  Biso   1.000  O 
  O6574    1.0000 0.81073  0.15589  0.34815  Biso   1.000  O 
  Ca2530   1.0000 0.84422  0.15589  0.38032  Biso   1.000  Ca
  P1518    1.0000 0.95028  0.15589  0.35713  Biso   1.000  P 
  O6575    1.0000 0.92672  0.15589  0.35736  Biso   1.000  O 
  O6576    1.0000 0.95900  0.15589  0.37353  Biso   1.000  O 
  O6577    1.0000 0.75011  0.14938  0.33878  Biso   1.000  O 
  O6578    1.0000 0.75011  0.21187  0.33878  Biso   1.000  O 
  H505     1.0000 0.75011  0.12920  0.33878  Biso   1.000  H 
  H506     1.0000 0.75022  0.19169  0.33873  Biso   1.000  H 
  O6579    1.0000 0.86442  0.24085  0.42561  Biso   1.000  O 
  O6580    1.0000 0.96786  0.24085  0.42395  Biso   1.000  O 
  O6581    1.0000 0.79305  0.24085  0.43786  Biso   1.000  O 
  O6582    1.0000 0.76080  0.17835  0.41460  Biso   1.000  O 
  O6583    1.0000 0.90736  0.17835  0.41625  Biso   1.000  O 
  O6584    1.0000 0.83217  0.17835  0.40235  Biso   1.000  O 
  O6585    1.0000 0.76080  0.13342  0.41460  Biso   1.000  O 
  O6586    1.0000 0.90736  0.13342  0.41625  Biso   1.000  O 
  O6587    1.0000 0.83217  0.13342  0.40235  Biso   1.000  O 
  O6588    1.0000 0.86442  0.19593  0.42561  Biso   1.000  O 
  O6589    1.0000 0.96786  0.19593  0.42395  Biso   1.000  O 
  O6590    1.0000 0.79305  0.19593  0.43786  Biso   1.000  O 
  Ca2531   1.0000 0.79178  0.24945  0.39299  Biso   1.000  Ca
  Ca2532   1.0000 0.95844  0.18696  0.39300  Biso   1.000  Ca
  Ca2533   1.0000 0.95844  0.24982  0.39300  Biso   1.000  Ca
  Ca2534   1.0000 0.79178  0.18731  0.39299  Biso   1.000  Ca
  Ca2535   1.0000 0.84506  0.21838  0.40675  Biso   1.000  Ca
  P1519    1.0000 0.87136  0.21838  0.43460  Biso   1.000  P 
  O6591    1.0000 0.98484  0.21838  0.39582  Biso   1.000  O 
  O6592    1.0000 0.89463  0.21838  0.43713  Biso   1.000  O 
  Ca2536   1.0000 0.99929  0.21838  0.42078  Biso   1.000  Ca
  P1520    1.0000 0.95404  0.21838  0.42397  Biso   1.000  P 
  O6593    1.0000 0.94200  0.21838  0.40876  Biso   1.000  O 
  O6594    1.0000 0.93949  0.21838  0.43784  Biso   1.000  O 
  Ca2537   1.0000 0.90599  0.21838  0.40568  Biso   1.000  Ca
  P1521    1.0000 0.79995  0.21838  0.42886  Biso   1.000  P 
  O6595    1.0000 0.82350  0.21838  0.42864  Biso   1.000  O 
  O6596    1.0000 0.79122  0.21838  0.41246  Biso   1.000  O 
  Ca2538   1.0000 0.78018  0.15589  0.43346  Biso   1.000  Ca
  P1522    1.0000 0.75386  0.15589  0.40561  Biso   1.000  P 
  O6597    1.0000 0.89039  0.15589  0.44439  Biso   1.000  O 
  O6598    1.0000 0.98060  0.15589  0.40309  Biso   1.000  O 
  Ca2539   1.0000 0.87593  0.15589  0.41943  Biso   1.000  Ca
  P1523    1.0000 0.92119  0.15589  0.41624  Biso   1.000  P 
  O6599    1.0000 0.93322  0.15589  0.43146  Biso   1.000  O 
  O6600    1.0000 0.93573  0.15589  0.40237  Biso   1.000  O 
  Ca2540   1.0000 0.96922  0.15589  0.43454  Biso   1.000  Ca
  P1524    1.0000 0.82528  0.15589  0.41135  Biso   1.000  P 
  O6601    1.0000 0.80172  0.15589  0.41157  Biso   1.000  O 
  O6602    1.0000 0.83400  0.15589  0.42775  Biso   1.000  O 
  O6603    1.0000 0.87511  0.14938  0.39300  Biso   1.000  O 
  O6604    1.0000 0.87511  0.21187  0.39300  Biso   1.000  O 
  H507     1.0000 0.87511  0.12920  0.39300  Biso   1.000  H 
  H508     1.0000 0.87522  0.19169  0.39295  Biso   1.000  H 
  O6605    1.0000 0.98942  0.24085  0.47982  Biso   1.000  O 
  O6606    1.0000 0.84286  0.24085  0.47817  Biso   1.000  O 
  O6607    1.0000 0.91805  0.24085  0.49208  Biso   1.000  O 
  O6608    1.0000 0.88580  0.17835  0.46882  Biso   1.000  O 
  O6609    1.0000 0.78236  0.17835  0.47047  Biso   1.000  O 
  O6610    1.0000 0.95717  0.17835  0.45657  Biso   1.000  O 
  O6611    1.0000 0.88580  0.13342  0.46882  Biso   1.000  O 
  O6612    1.0000 0.78236  0.13342  0.47047  Biso   1.000  O 
  O6613    1.0000 0.95717  0.13342  0.45657  Biso   1.000  O 
  O6614    1.0000 0.98942  0.19593  0.47982  Biso   1.000  O 
  O6615    1.0000 0.84286  0.19593  0.47817  Biso   1.000  O 
  O6616    1.0000 0.91805  0.19593  0.49208  Biso   1.000  O 
  Ca2541   1.0000 0.91678  0.24945  0.44721  Biso   1.000  Ca
  Ca2542   1.0000 0.83344  0.18696  0.44722  Biso   1.000  Ca
  Ca2543   1.0000 0.83344  0.24982  0.44722  Biso   1.000  Ca
  Ca2544   1.0000 0.91678  0.18731  0.44721  Biso   1.000  Ca
  Ca2545   1.0000 0.97006  0.21838  0.46097  Biso   1.000  Ca
  P1525    1.0000 0.99636  0.21838  0.48881  Biso   1.000  P 
  O6617    1.0000 0.85984  0.21838  0.45004  Biso   1.000  O 
  O6618    1.0000 0.76963  0.21838  0.49134  Biso   1.000  O 
  Ca2546   1.0000 0.87429  0.21838  0.47500  Biso   1.000  Ca
  P1526    1.0000 0.82904  0.21838  0.47819  Biso   1.000  P 
  O6619    1.0000 0.81700  0.21838  0.46298  Biso   1.000  O 
  O6620    1.0000 0.81449  0.21838  0.49206  Biso   1.000  O 
  Ca2547   1.0000 0.78099  0.21838  0.45990  Biso   1.000  Ca
  P1527    1.0000 0.92495  0.21838  0.48308  Biso   1.000  P 
  O6621    1.0000 0.94850  0.21838  0.48285  Biso   1.000  O 
  O6622    1.0000 0.91622  0.21838  0.46667  Biso   1.000  O 
  Ca2548   1.0000 0.90518  0.15589  0.48768  Biso   1.000  Ca
  P1528    1.0000 0.87886  0.15589  0.45983  Biso   1.000  P 
  O6623    1.0000 0.76539  0.15589  0.49861  Biso   1.000  O 
  O6624    1.0000 0.85560  0.15589  0.45731  Biso   1.000  O 
  Ca2549   1.0000 0.75093  0.15589  0.47365  Biso   1.000  Ca
  P1529    1.0000 0.79619  0.15589  0.47046  Biso   1.000  P 
  O6625    1.0000 0.80822  0.15589  0.48568  Biso   1.000  O 
  O6626    1.0000 0.81073  0.15589  0.45658  Biso   1.000  O 
  Ca2550   1.0000 0.84422  0.15589  0.48875  Biso   1.000  Ca
  P1530    1.0000 0.95028  0.15589  0.46557  Biso   1.000  P 
  O6627    1.0000 0.92672  0.15589  0.46579  Biso   1.000  O 
  O6628    1.0000 0.95900  0.15589  0.48197  Biso   1.000  O 
  O6629    1.0000 0.75011  0.14938  0.44722  Biso   1.000  O 
  O6630    1.0000 0.75011  0.21187  0.44722  Biso   1.000  O 
  H509     1.0000 0.75011  0.12920  0.44722  Biso   1.000  H 
  H510     1.0000 0.75022  0.19169  0.44717  Biso   1.000  H 
  O6631    1.0000 0.86442  0.24085  0.53404  Biso   1.000  O 
  O6632    1.0000 0.96786  0.24085  0.53239  Biso   1.000  O 
  O6633    1.0000 0.79305  0.24085  0.54629  Biso   1.000  O 
  O6634    1.0000 0.76080  0.17835  0.52304  Biso   1.000  O 
  O6635    1.0000 0.90736  0.17835  0.52469  Biso   1.000  O 
  O6636    1.0000 0.83217  0.17835  0.51079  Biso   1.000  O 
  O6637    1.0000 0.76080  0.13342  0.52304  Biso   1.000  O 
  O6638    1.0000 0.90736  0.13342  0.52469  Biso   1.000  O 
  O6639    1.0000 0.83217  0.13342  0.51079  Biso   1.000  O 
  O6640    1.0000 0.86442  0.19593  0.53404  Biso   1.000  O 
  O6641    1.0000 0.96786  0.19593  0.53239  Biso   1.000  O 
  O6642    1.0000 0.79305  0.19593  0.54629  Biso   1.000  O 
  Ca2551   1.0000 0.79178  0.24945  0.50143  Biso   1.000  Ca
  Ca2552   1.0000 0.95844  0.18696  0.50144  Biso   1.000  Ca
  Ca2553   1.0000 0.95844  0.24982  0.50144  Biso   1.000  Ca
  Ca2554   1.0000 0.79178  0.18731  0.50143  Biso   1.000  Ca
  Ca2555   1.0000 0.84506  0.21838  0.51519  Biso   1.000  Ca
  P1531    1.0000 0.87136  0.21838  0.54303  Biso   1.000  P 
  O6643    1.0000 0.98484  0.21838  0.50426  Biso   1.000  O 
  O6644    1.0000 0.89463  0.21838  0.54556  Biso   1.000  O 
  Ca2556   1.0000 0.99929  0.21838  0.52922  Biso   1.000  Ca
  P1532    1.0000 0.95404  0.21838  0.53241  Biso   1.000  P 
  O6645    1.0000 0.94200  0.21838  0.51720  Biso   1.000  O 
  O6646    1.0000 0.93949  0.21838  0.54628  Biso   1.000  O 
  Ca2557   1.0000 0.90599  0.21838  0.51412  Biso   1.000  Ca
  P1533    1.0000 0.79995  0.21838  0.53729  Biso   1.000  P 
  O6647    1.0000 0.82350  0.21838  0.53707  Biso   1.000  O 
  O6648    1.0000 0.79122  0.21838  0.52089  Biso   1.000  O 
  Ca2558   1.0000 0.78018  0.15589  0.54190  Biso   1.000  Ca
  P1534    1.0000 0.75386  0.15589  0.51405  Biso   1.000  P 
  O6649    1.0000 0.89039  0.15589  0.55283  Biso   1.000  O 
  O6650    1.0000 0.98060  0.15589  0.51152  Biso   1.000  O 
  Ca2559   1.0000 0.87593  0.15589  0.52786  Biso   1.000  Ca
  P1535    1.0000 0.92119  0.15589  0.52468  Biso   1.000  P 
  O6651    1.0000 0.93322  0.15589  0.53989  Biso   1.000  O 
  O6652    1.0000 0.93573  0.15589  0.51080  Biso   1.000  O 
  Ca2560   1.0000 0.96922  0.15589  0.54297  Biso   1.000  Ca
  P1536    1.0000 0.82528  0.15589  0.51979  Biso   1.000  P 
  O6653    1.0000 0.80172  0.15589  0.52001  Biso   1.000  O 
  O6654    1.0000 0.83400  0.15589  0.53619  Biso   1.000  O 
  O6655    1.0000 0.87511  0.14938  0.50143  Biso   1.000  O 
  O6656    1.0000 0.87511  0.21187  0.50143  Biso   1.000  O 
  H511     1.0000 0.87511  0.12920  0.50143  Biso   1.000  H 
  H512     1.0000 0.87522  0.19169  0.50139  Biso   1.000  H 
  O6657    1.0000 0.98942  0.24085  0.58826  Biso   1.000  O 
  O6658    1.0000 0.84286  0.24085  0.58661  Biso   1.000  O 
  O6659    1.0000 0.91805  0.24085  0.60051  Biso   1.000  O 
  O6660    1.0000 0.88580  0.17835  0.57726  Biso   1.000  O 
  O6661    1.0000 0.78236  0.17835  0.57891  Biso   1.000  O 
  O6662    1.0000 0.95717  0.17835  0.56500  Biso   1.000  O 
  O6663    1.0000 0.88580  0.13342  0.57726  Biso   1.000  O 
  O6664    1.0000 0.78236  0.13342  0.57891  Biso   1.000  O 
  O6665    1.0000 0.95717  0.13342  0.56500  Biso   1.000  O 
  O6666    1.0000 0.98942  0.19593  0.58826  Biso   1.000  O 
  O6667    1.0000 0.84286  0.19593  0.58661  Biso   1.000  O 
  O6668    1.0000 0.91805  0.19593  0.60051  Biso   1.000  O 
  Ca2561   1.0000 0.91678  0.24945  0.55565  Biso   1.000  Ca
  Ca2562   1.0000 0.83344  0.18696  0.55565  Biso   1.000  Ca
  Ca2563   1.0000 0.83344  0.24982  0.55565  Biso   1.000  Ca
  Ca2564   1.0000 0.91678  0.18731  0.55565  Biso   1.000  Ca
  Ca2565   1.0000 0.97006  0.21838  0.56941  Biso   1.000  Ca
  P1537    1.0000 0.99636  0.21838  0.59725  Biso   1.000  P 
  O6669    1.0000 0.85984  0.21838  0.55847  Biso   1.000  O 
  O6670    1.0000 0.76963  0.21838  0.59978  Biso   1.000  O 
  Ca2566   1.0000 0.87429  0.21838  0.58343  Biso   1.000  Ca
  P1538    1.0000 0.82904  0.21838  0.58662  Biso   1.000  P 
  O6671    1.0000 0.81700  0.21838  0.57141  Biso   1.000  O 
  O6672    1.0000 0.81449  0.21838  0.60050  Biso   1.000  O 
  Ca2567   1.0000 0.78099  0.21838  0.56834  Biso   1.000  Ca
  P1539    1.0000 0.92495  0.21838  0.59151  Biso   1.000  P 
  O6673    1.0000 0.94850  0.21838  0.59129  Biso   1.000  O 
  O6674    1.0000 0.91622  0.21838  0.57511  Biso   1.000  O 
  Ca2568   1.0000 0.90518  0.15589  0.59611  Biso   1.000  Ca
  P1540    1.0000 0.87886  0.15589  0.56827  Biso   1.000  P 
  O6675    1.0000 0.76539  0.15589  0.60705  Biso   1.000  O 
  O6676    1.0000 0.85560  0.15589  0.56574  Biso   1.000  O 
  Ca2569   1.0000 0.75093  0.15589  0.58208  Biso   1.000  Ca
  P1541    1.0000 0.79619  0.15589  0.57890  Biso   1.000  P 
  O6677    1.0000 0.80822  0.15589  0.59411  Biso   1.000  O 
  O6678    1.0000 0.81073  0.15589  0.56502  Biso   1.000  O 
  Ca2570   1.0000 0.84422  0.15589  0.59719  Biso   1.000  Ca
  P1542    1.0000 0.95028  0.15589  0.57400  Biso   1.000  P 
  O6679    1.0000 0.92672  0.15589  0.57423  Biso   1.000  O 
  O6680    1.0000 0.95900  0.15589  0.59041  Biso   1.000  O 
  O6681    1.0000 0.75011  0.14938  0.55565  Biso   1.000  O 
  O6682    1.0000 0.75011  0.21187  0.55565  Biso   1.000  O 
  H513     1.0000 0.75011  0.12920  0.55565  Biso   1.000  H 
  H514     1.0000 0.75022  0.19169  0.55561  Biso   1.000  H 
  O6683    1.0000 0.86442  0.24085  0.64248  Biso   1.000  O 
  O6684    1.0000 0.96786  0.24085  0.64083  Biso   1.000  O 
  O6685    1.0000 0.79305  0.24085  0.65473  Biso   1.000  O 
  O6686    1.0000 0.76080  0.17835  0.63147  Biso   1.000  O 
  O6687    1.0000 0.90736  0.17835  0.63313  Biso   1.000  O 
  O6688    1.0000 0.83217  0.17835  0.61922  Biso   1.000  O 
  O6689    1.0000 0.76080  0.13342  0.63147  Biso   1.000  O 
  O6690    1.0000 0.90736  0.13342  0.63313  Biso   1.000  O 
  O6691    1.0000 0.83217  0.13342  0.61922  Biso   1.000  O 
  O6692    1.0000 0.86442  0.19593  0.64248  Biso   1.000  O 
  O6693    1.0000 0.96786  0.19593  0.64083  Biso   1.000  O 
  O6694    1.0000 0.79305  0.19593  0.65473  Biso   1.000  O 
  Ca2571   1.0000 0.79178  0.24945  0.60986  Biso   1.000  Ca
  Ca2572   1.0000 0.95844  0.18696  0.60987  Biso   1.000  Ca
  Ca2573   1.0000 0.95844  0.24982  0.60987  Biso   1.000  Ca
  Ca2574   1.0000 0.79178  0.18731  0.60986  Biso   1.000  Ca
  Ca2575   1.0000 0.84506  0.21838  0.62363  Biso   1.000  Ca
  P1543    1.0000 0.87136  0.21838  0.65147  Biso   1.000  P 
  O6695    1.0000 0.98484  0.21838  0.61269  Biso   1.000  O 
  O6696    1.0000 0.89463  0.21838  0.65400  Biso   1.000  O 
  Ca2576   1.0000 0.99929  0.21838  0.63765  Biso   1.000  Ca
  P1544    1.0000 0.95404  0.21838  0.64084  Biso   1.000  P 
  O6697    1.0000 0.94200  0.21838  0.62563  Biso   1.000  O 
  O6698    1.0000 0.93949  0.21838  0.65471  Biso   1.000  O 
  Ca2577   1.0000 0.90599  0.21838  0.62255  Biso   1.000  Ca
  P1545    1.0000 0.79995  0.21838  0.64573  Biso   1.000  P 
  O6699    1.0000 0.82350  0.21838  0.64551  Biso   1.000  O 
  O6700    1.0000 0.79122  0.21838  0.62933  Biso   1.000  O 
  Ca2578   1.0000 0.78018  0.15589  0.65033  Biso   1.000  Ca
  P1546    1.0000 0.75386  0.15589  0.62248  Biso   1.000  P 
  O6701    1.0000 0.89039  0.15589  0.66127  Biso   1.000  O 
  O6702    1.0000 0.98060  0.15589  0.61996  Biso   1.000  O 
  Ca2579   1.0000 0.87593  0.15589  0.63630  Biso   1.000  Ca
  P1547    1.0000 0.92119  0.15589  0.63312  Biso   1.000  P 
  O6703    1.0000 0.93322  0.15589  0.64833  Biso   1.000  O 
  O6704    1.0000 0.93573  0.15589  0.61924  Biso   1.000  O 
  Ca2580   1.0000 0.96922  0.15589  0.65141  Biso   1.000  Ca
  P1548    1.0000 0.82528  0.15589  0.62822  Biso   1.000  P 
  O6705    1.0000 0.80172  0.15589  0.62845  Biso   1.000  O 
  O6706    1.0000 0.83400  0.15589  0.64462  Biso   1.000  O 
  O6707    1.0000 0.87511  0.14938  0.60987  Biso   1.000  O 
  O6708    1.0000 0.87511  0.21187  0.60987  Biso   1.000  O 
  H515     1.0000 0.87511  0.12920  0.60987  Biso   1.000  H 
  H516     1.0000 0.87522  0.19169  0.60982  Biso   1.000  H 
  O6709    1.0000 0.98942  0.24085  0.69670  Biso   1.000  O 
  O6710    1.0000 0.84286  0.24085  0.69504  Biso   1.000  O 
  O6711    1.0000 0.91805  0.24085  0.70895  Biso   1.000  O 
  O6712    1.0000 0.88580  0.17835  0.68569  Biso   1.000  O 
  O6713    1.0000 0.78236  0.17835  0.68734  Biso   1.000  O 
  O6714    1.0000 0.95717  0.17835  0.67344  Biso   1.000  O 
  O6715    1.0000 0.88580  0.13342  0.68569  Biso   1.000  O 
  O6716    1.0000 0.78236  0.13342  0.68734  Biso   1.000  O 
  O6717    1.0000 0.95717  0.13342  0.67344  Biso   1.000  O 
  O6718    1.0000 0.98942  0.19593  0.69670  Biso   1.000  O 
  O6719    1.0000 0.84286  0.19593  0.69504  Biso   1.000  O 
  O6720    1.0000 0.91805  0.19593  0.70895  Biso   1.000  O 
  Ca2581   1.0000 0.91678  0.24945  0.66408  Biso   1.000  Ca
  Ca2582   1.0000 0.83344  0.18696  0.66409  Biso   1.000  Ca
  Ca2583   1.0000 0.83344  0.24982  0.66409  Biso   1.000  Ca
  Ca2584   1.0000 0.91678  0.18731  0.66408  Biso   1.000  Ca
  Ca2585   1.0000 0.97006  0.21838  0.67784  Biso   1.000  Ca
  P1549    1.0000 0.99636  0.21838  0.70569  Biso   1.000  P 
  O6721    1.0000 0.85984  0.21838  0.66691  Biso   1.000  O 
  O6722    1.0000 0.76963  0.21838  0.70822  Biso   1.000  O 
  Ca2586   1.0000 0.87429  0.21838  0.69187  Biso   1.000  Ca
  P1550    1.0000 0.82904  0.21838  0.69506  Biso   1.000  P 
  O6723    1.0000 0.81700  0.21838  0.67985  Biso   1.000  O 
  O6724    1.0000 0.81449  0.21838  0.70893  Biso   1.000  O 
  Ca2587   1.0000 0.78099  0.21838  0.67677  Biso   1.000  Ca
  P1551    1.0000 0.92495  0.21838  0.69995  Biso   1.000  P 
  O6725    1.0000 0.94850  0.21838  0.69973  Biso   1.000  O 
  O6726    1.0000 0.91622  0.21838  0.68355  Biso   1.000  O 
  Ca2588   1.0000 0.90518  0.15589  0.70455  Biso   1.000  Ca
  P1552    1.0000 0.87886  0.15589  0.67670  Biso   1.000  P 
  O6727    1.0000 0.76539  0.15589  0.71548  Biso   1.000  O 
  O6728    1.0000 0.85560  0.15589  0.67418  Biso   1.000  O 
  Ca2589   1.0000 0.75093  0.15589  0.69052  Biso   1.000  Ca
  P1553    1.0000 0.79619  0.15589  0.68733  Biso   1.000  P 
  O6729    1.0000 0.80822  0.15589  0.70255  Biso   1.000  O 
  O6730    1.0000 0.81073  0.15589  0.67346  Biso   1.000  O 
  Ca2590   1.0000 0.84422  0.15589  0.70563  Biso   1.000  Ca
  P1554    1.0000 0.95028  0.15589  0.68244  Biso   1.000  P 
  O6731    1.0000 0.92672  0.15589  0.68266  Biso   1.000  O 
  O6732    1.0000 0.95900  0.15589  0.69884  Biso   1.000  O 
  O6733    1.0000 0.75011  0.14938  0.66409  Biso   1.000  O 
  O6734    1.0000 0.75011  0.21187  0.66409  Biso   1.000  O 
  H517     1.0000 0.75011  0.12920  0.66409  Biso   1.000  H 
  H518     1.0000 0.75022  0.19169  0.66404  Biso   1.000  H 
  O6735    1.0000 0.86442  0.24085  0.75091  Biso   1.000  O 
  O6736    1.0000 0.96786  0.24085  0.74926  Biso   1.000  O 
  O6737    1.0000 0.79305  0.24085  0.76317  Biso   1.000  O 
  O6738    1.0000 0.76080  0.17835  0.73991  Biso   1.000  O 
  O6739    1.0000 0.90736  0.17835  0.74156  Biso   1.000  O 
  O6740    1.0000 0.83217  0.17835  0.72766  Biso   1.000  O 
  O6741    1.0000 0.76080  0.13342  0.73991  Biso   1.000  O 
  O6742    1.0000 0.90736  0.13342  0.74156  Biso   1.000  O 
  O6743    1.0000 0.83217  0.13342  0.72766  Biso   1.000  O 
  O6744    1.0000 0.86442  0.19593  0.75091  Biso   1.000  O 
  O6745    1.0000 0.96786  0.19593  0.74926  Biso   1.000  O 
  O6746    1.0000 0.79305  0.19593  0.76317  Biso   1.000  O 
  Ca2591   1.0000 0.79178  0.24945  0.71830  Biso   1.000  Ca
  Ca2592   1.0000 0.95844  0.18696  0.71831  Biso   1.000  Ca
  Ca2593   1.0000 0.95844  0.24982  0.71831  Biso   1.000  Ca
  Ca2594   1.0000 0.79178  0.18731  0.71830  Biso   1.000  Ca
  Ca2595   1.0000 0.84506  0.21838  0.73206  Biso   1.000  Ca
  P1555    1.0000 0.87136  0.21838  0.75990  Biso   1.000  P 
  O6747    1.0000 0.98484  0.21838  0.72113  Biso   1.000  O 
  O6748    1.0000 0.89463  0.21838  0.76243  Biso   1.000  O 
  Ca2596   1.0000 0.99929  0.21838  0.74609  Biso   1.000  Ca
  P1556    1.0000 0.95404  0.21838  0.74928  Biso   1.000  P 
  O6749    1.0000 0.94200  0.21838  0.73407  Biso   1.000  O 
  O6750    1.0000 0.93949  0.21838  0.76315  Biso   1.000  O 
  Ca2597   1.0000 0.90599  0.21838  0.73099  Biso   1.000  Ca
  P1557    1.0000 0.79995  0.21838  0.75417  Biso   1.000  P 
  O6751    1.0000 0.82350  0.21838  0.75394  Biso   1.000  O 
  O6752    1.0000 0.79122  0.21838  0.73776  Biso   1.000  O 
  Ca2598   1.0000 0.78018  0.15589  0.75877  Biso   1.000  Ca
  P1558    1.0000 0.75386  0.15589  0.73092  Biso   1.000  P 
  O6753    1.0000 0.89039  0.15589  0.76970  Biso   1.000  O 
  O6754    1.0000 0.98060  0.15589  0.72840  Biso   1.000  O 
  Ca2599   1.0000 0.87593  0.15589  0.74474  Biso   1.000  Ca
  P1559    1.0000 0.92119  0.15589  0.74155  Biso   1.000  P 
  O6755    1.0000 0.93322  0.15589  0.75677  Biso   1.000  O 
  O6756    1.0000 0.93573  0.15589  0.72767  Biso   1.000  O 
  Ca2600   1.0000 0.96922  0.15589  0.75984  Biso   1.000  Ca
  P1560    1.0000 0.82528  0.15589  0.73666  Biso   1.000  P 
  O6757    1.0000 0.80172  0.15589  0.73688  Biso   1.000  O 
  O6758    1.0000 0.83400  0.15589  0.75306  Biso   1.000  O 
  O6759    1.0000 0.87511  0.14938  0.71831  Biso   1.000  O 
  O6760    1.0000 0.87511  0.21187  0.71831  Biso   1.000  O 
  H519     1.0000 0.87511  0.12920  0.71831  Biso   1.000  H 
  H520     1.0000 0.87522  0.19169  0.71826  Biso   1.000  H 
  O6761    1.0000 0.98942  0.36585  0.26295  Biso   1.000  O 
  O6762    1.0000 0.84286  0.36585  0.26130  Biso   1.000  O 
  O6763    1.0000 0.91805  0.36585  0.27520  Biso   1.000  O 
  O6764    1.0000 0.88580  0.30335  0.25195  Biso   1.000  O 
  O6765    1.0000 0.78236  0.30335  0.25360  Biso   1.000  O 
  O6766    1.0000 0.95717  0.30335  0.23970  Biso   1.000  O 
  O6767    1.0000 0.88580  0.25842  0.25195  Biso   1.000  O 
  O6768    1.0000 0.78236  0.25842  0.25360  Biso   1.000  O 
  O6769    1.0000 0.95717  0.25842  0.23970  Biso   1.000  O 
  O6770    1.0000 0.98942  0.32093  0.26295  Biso   1.000  O 
  O6771    1.0000 0.84286  0.32093  0.26130  Biso   1.000  O 
  O6772    1.0000 0.91805  0.32093  0.27520  Biso   1.000  O 
  Ca2601   1.0000 0.91678  0.37445  0.23034  Biso   1.000  Ca
  Ca2602   1.0000 0.83344  0.31196  0.23035  Biso   1.000  Ca
  Ca2603   1.0000 0.83344  0.37482  0.23035  Biso   1.000  Ca
  Ca2604   1.0000 0.91678  0.31231  0.23034  Biso   1.000  Ca
  Ca2605   1.0000 0.97006  0.34338  0.24410  Biso   1.000  Ca
  P1561    1.0000 0.99636  0.34338  0.27194  Biso   1.000  P 
  O6773    1.0000 0.85984  0.34338  0.23317  Biso   1.000  O 
  O6774    1.0000 0.76963  0.34338  0.27447  Biso   1.000  O 
  Ca2606   1.0000 0.87429  0.34338  0.25813  Biso   1.000  Ca
  P1562    1.0000 0.82904  0.34338  0.26132  Biso   1.000  P 
  O6775    1.0000 0.81700  0.34338  0.24611  Biso   1.000  O 
  O6776    1.0000 0.81449  0.34338  0.27519  Biso   1.000  O 
  Ca2607   1.0000 0.78099  0.34338  0.24303  Biso   1.000  Ca
  P1563    1.0000 0.92495  0.34338  0.26620  Biso   1.000  P 
  O6777    1.0000 0.94850  0.34338  0.26598  Biso   1.000  O 
  O6778    1.0000 0.91622  0.34338  0.24980  Biso   1.000  O 
  Ca2608   1.0000 0.90518  0.28089  0.27081  Biso   1.000  Ca
  P1564    1.0000 0.87886  0.28089  0.24296  Biso   1.000  P 
  O6779    1.0000 0.76539  0.28089  0.28174  Biso   1.000  O 
  O6780    1.0000 0.85560  0.28089  0.24043  Biso   1.000  O 
  Ca2609   1.0000 0.75093  0.28089  0.25677  Biso   1.000  Ca
  P1565    1.0000 0.79619  0.28089  0.25359  Biso   1.000  P 
  O6781    1.0000 0.80822  0.28089  0.26880  Biso   1.000  O 
  O6782    1.0000 0.81073  0.28089  0.23971  Biso   1.000  O 
  Ca2610   1.0000 0.84422  0.28089  0.27188  Biso   1.000  Ca
  P1566    1.0000 0.95028  0.28089  0.24870  Biso   1.000  P 
  O6783    1.0000 0.92672  0.28089  0.24892  Biso   1.000  O 
  O6784    1.0000 0.95900  0.28089  0.26510  Biso   1.000  O 
  O6785    1.0000 0.75011  0.27438  0.23034  Biso   1.000  O 
  O6786    1.0000 0.75011  0.33687  0.23034  Biso   1.000  O 
  H521     1.0000 0.75011  0.25420  0.23034  Biso   1.000  H 
  H522     1.0000 0.75022  0.31669  0.23030  Biso   1.000  H 
  O6787    1.0000 0.86442  0.36585  0.31717  Biso   1.000  O 
  O6788    1.0000 0.96786  0.36585  0.31552  Biso   1.000  O 
  O6789    1.0000 0.79305  0.36585  0.32942  Biso   1.000  O 
  O6790    1.0000 0.76080  0.30335  0.30617  Biso   1.000  O 
  O6791    1.0000 0.90736  0.30335  0.30782  Biso   1.000  O 
  O6792    1.0000 0.83217  0.30335  0.29391  Biso   1.000  O 
  O6793    1.0000 0.76080  0.25842  0.30617  Biso   1.000  O 
  O6794    1.0000 0.90736  0.25842  0.30782  Biso   1.000  O 
  O6795    1.0000 0.83217  0.25842  0.29391  Biso   1.000  O 
  O6796    1.0000 0.86442  0.32093  0.31717  Biso   1.000  O 
  O6797    1.0000 0.96786  0.32093  0.31552  Biso   1.000  O 
  O6798    1.0000 0.79305  0.32093  0.32942  Biso   1.000  O 
  Ca2611   1.0000 0.79178  0.37445  0.28456  Biso   1.000  Ca
  Ca2612   1.0000 0.95844  0.31196  0.28456  Biso   1.000  Ca
  Ca2613   1.0000 0.95844  0.37482  0.28456  Biso   1.000  Ca
  Ca2614   1.0000 0.79178  0.31231  0.28456  Biso   1.000  Ca
  Ca2615   1.0000 0.84506  0.34338  0.29832  Biso   1.000  Ca
  P1567    1.0000 0.87136  0.34338  0.32616  Biso   1.000  P 
  O6799    1.0000 0.98484  0.34338  0.28738  Biso   1.000  O 
  O6800    1.0000 0.89463  0.34338  0.32869  Biso   1.000  O 
  Ca2616   1.0000 0.99929  0.34338  0.31234  Biso   1.000  Ca
  P1568    1.0000 0.95404  0.34338  0.31554  Biso   1.000  P 
  O6801    1.0000 0.94200  0.34338  0.30033  Biso   1.000  O 
  O6802    1.0000 0.93949  0.34338  0.32941  Biso   1.000  O 
  Ca2617   1.0000 0.90599  0.34338  0.29725  Biso   1.000  Ca
  P1569    1.0000 0.79995  0.34338  0.32042  Biso   1.000  P 
  O6803    1.0000 0.82350  0.34338  0.32020  Biso   1.000  O 
  O6804    1.0000 0.79122  0.34338  0.30402  Biso   1.000  O 
  Ca2618   1.0000 0.78018  0.28089  0.32502  Biso   1.000  Ca
  P1570    1.0000 0.75386  0.28089  0.29718  Biso   1.000  P 
  O6805    1.0000 0.89039  0.28089  0.33596  Biso   1.000  O 
  O6806    1.0000 0.98060  0.28089  0.29465  Biso   1.000  O 
  Ca2619   1.0000 0.87593  0.28089  0.31099  Biso   1.000  Ca
  P1571    1.0000 0.92119  0.28089  0.30781  Biso   1.000  P 
  O6807    1.0000 0.93322  0.28089  0.32302  Biso   1.000  O 
  O6808    1.0000 0.93573  0.28089  0.29393  Biso   1.000  O 
  Ca2620   1.0000 0.96922  0.28089  0.32610  Biso   1.000  Ca
  P1572    1.0000 0.82528  0.28089  0.30291  Biso   1.000  P 
  O6809    1.0000 0.80172  0.28089  0.30314  Biso   1.000  O 
  O6810    1.0000 0.83400  0.28089  0.31932  Biso   1.000  O 
  O6811    1.0000 0.87511  0.27438  0.28456  Biso   1.000  O 
  O6812    1.0000 0.87511  0.33687  0.28456  Biso   1.000  O 
  H523     1.0000 0.87511  0.25420  0.28456  Biso   1.000  H 
  H524     1.0000 0.87522  0.31669  0.28452  Biso   1.000  H 
  O6813    1.0000 0.98942  0.36585  0.37139  Biso   1.000  O 
  O6814    1.0000 0.84286  0.36585  0.36974  Biso   1.000  O 
  O6815    1.0000 0.91805  0.36585  0.38364  Biso   1.000  O 
  O6816    1.0000 0.88580  0.30335  0.36038  Biso   1.000  O 
  O6817    1.0000 0.78236  0.30335  0.36204  Biso   1.000  O 
  O6818    1.0000 0.95717  0.30335  0.34813  Biso   1.000  O 
  O6819    1.0000 0.88580  0.25842  0.36038  Biso   1.000  O 
  O6820    1.0000 0.78236  0.25842  0.36204  Biso   1.000  O 
  O6821    1.0000 0.95717  0.25842  0.34813  Biso   1.000  O 
  O6822    1.0000 0.98942  0.32093  0.37139  Biso   1.000  O 
  O6823    1.0000 0.84286  0.32093  0.36974  Biso   1.000  O 
  O6824    1.0000 0.91805  0.32093  0.38364  Biso   1.000  O 
  Ca2621   1.0000 0.91678  0.37445  0.33877  Biso   1.000  Ca
  Ca2622   1.0000 0.83344  0.31196  0.33878  Biso   1.000  Ca
  Ca2623   1.0000 0.83344  0.37482  0.33878  Biso   1.000  Ca
  Ca2624   1.0000 0.91678  0.31231  0.33877  Biso   1.000  Ca
  Ca2625   1.0000 0.97006  0.34338  0.35254  Biso   1.000  Ca
  P1573    1.0000 0.99636  0.34338  0.38038  Biso   1.000  P 
  O6825    1.0000 0.85984  0.34338  0.34160  Biso   1.000  O 
  O6826    1.0000 0.76963  0.34338  0.38291  Biso   1.000  O 
  Ca2626   1.0000 0.87429  0.34338  0.36656  Biso   1.000  Ca
  P1574    1.0000 0.82904  0.34338  0.36975  Biso   1.000  P 
  O6827    1.0000 0.81700  0.34338  0.35454  Biso   1.000  O 
  O6828    1.0000 0.81449  0.34338  0.38362  Biso   1.000  O 
  Ca2627   1.0000 0.78099  0.34338  0.35146  Biso   1.000  Ca
  P1575    1.0000 0.92495  0.34338  0.37464  Biso   1.000  P 
  O6829    1.0000 0.94850  0.34338  0.37442  Biso   1.000  O 
  O6830    1.0000 0.91622  0.34338  0.35824  Biso   1.000  O 
  Ca2628   1.0000 0.90518  0.28089  0.37924  Biso   1.000  Ca
  P1576    1.0000 0.87886  0.28089  0.35140  Biso   1.000  P 
  O6831    1.0000 0.76539  0.28089  0.39018  Biso   1.000  O 
  O6832    1.0000 0.85560  0.28089  0.34887  Biso   1.000  O 
  Ca2629   1.0000 0.75093  0.28089  0.36521  Biso   1.000  Ca
  P1577    1.0000 0.79619  0.28089  0.36203  Biso   1.000  P 
  O6833    1.0000 0.80822  0.28089  0.37724  Biso   1.000  O 
  O6834    1.0000 0.81073  0.28089  0.34815  Biso   1.000  O 
  Ca2630   1.0000 0.84422  0.28089  0.38032  Biso   1.000  Ca
  P1578    1.0000 0.95028  0.28089  0.35713  Biso   1.000  P 
  O6835    1.0000 0.92672  0.28089  0.35736  Biso   1.000  O 
  O6836    1.0000 0.95900  0.28089  0.37353  Biso   1.000  O 
  O6837    1.0000 0.75011  0.27438  0.33878  Biso   1.000  O 
  O6838    1.0000 0.75011  0.33687  0.33878  Biso   1.000  O 
  H525     1.0000 0.75011  0.25420  0.33878  Biso   1.000  H 
  H526     1.0000 0.75022  0.31669  0.33873  Biso   1.000  H 
  O6839    1.0000 0.86442  0.36585  0.42561  Biso   1.000  O 
  O6840    1.0000 0.96786  0.36585  0.42395  Biso   1.000  O 
  O6841    1.0000 0.79305  0.36585  0.43786  Biso   1.000  O 
  O6842    1.0000 0.76080  0.30335  0.41460  Biso   1.000  O 
  O6843    1.0000 0.90736  0.30335  0.41625  Biso   1.000  O 
  O6844    1.0000 0.83217  0.30335  0.40235  Biso   1.000  O 
  O6845    1.0000 0.76080  0.25842  0.41460  Biso   1.000  O 
  O6846    1.0000 0.90736  0.25842  0.41625  Biso   1.000  O 
  O6847    1.0000 0.83217  0.25842  0.40235  Biso   1.000  O 
  O6848    1.0000 0.86442  0.32093  0.42561  Biso   1.000  O 
  O6849    1.0000 0.96786  0.32093  0.42395  Biso   1.000  O 
  O6850    1.0000 0.79305  0.32093  0.43786  Biso   1.000  O 
  Ca2631   1.0000 0.79178  0.37445  0.39299  Biso   1.000  Ca
  Ca2632   1.0000 0.95844  0.31196  0.39300  Biso   1.000  Ca
  Ca2633   1.0000 0.95844  0.37482  0.39300  Biso   1.000  Ca
  Ca2634   1.0000 0.79178  0.31231  0.39299  Biso   1.000  Ca
  Ca2635   1.0000 0.84506  0.34338  0.40675  Biso   1.000  Ca
  P1579    1.0000 0.87136  0.34338  0.43460  Biso   1.000  P 
  O6851    1.0000 0.98484  0.34338  0.39582  Biso   1.000  O 
  O6852    1.0000 0.89463  0.34338  0.43713  Biso   1.000  O 
  Ca2636   1.0000 0.99929  0.34338  0.42078  Biso   1.000  Ca
  P1580    1.0000 0.95404  0.34338  0.42397  Biso   1.000  P 
  O6853    1.0000 0.94200  0.34338  0.40876  Biso   1.000  O 
  O6854    1.0000 0.93949  0.34338  0.43784  Biso   1.000  O 
  Ca2637   1.0000 0.90599  0.34338  0.40568  Biso   1.000  Ca
  P1581    1.0000 0.79995  0.34338  0.42886  Biso   1.000  P 
  O6855    1.0000 0.82350  0.34338  0.42864  Biso   1.000  O 
  O6856    1.0000 0.79122  0.34338  0.41246  Biso   1.000  O 
  Ca2638   1.0000 0.78018  0.28089  0.43346  Biso   1.000  Ca
  P1582    1.0000 0.75386  0.28089  0.40561  Biso   1.000  P 
  O6857    1.0000 0.89039  0.28089  0.44439  Biso   1.000  O 
  O6858    1.0000 0.98060  0.28089  0.40309  Biso   1.000  O 
  Ca2639   1.0000 0.87593  0.28089  0.41943  Biso   1.000  Ca
  P1583    1.0000 0.92119  0.28089  0.41624  Biso   1.000  P 
  O6859    1.0000 0.93322  0.28089  0.43146  Biso   1.000  O 
  O6860    1.0000 0.93573  0.28089  0.40237  Biso   1.000  O 
  Ca2640   1.0000 0.96922  0.28089  0.43454  Biso   1.000  Ca
  P1584    1.0000 0.82528  0.28089  0.41135  Biso   1.000  P 
  O6861    1.0000 0.80172  0.28089  0.41157  Biso   1.000  O 
  O6862    1.0000 0.83400  0.28089  0.42775  Biso   1.000  O 
  O6863    1.0000 0.87511  0.27438  0.39300  Biso   1.000  O 
  O6864    1.0000 0.87511  0.33687  0.39300  Biso   1.000  O 
  H527     1.0000 0.87511  0.25420  0.39300  Biso   1.000  H 
  H528     1.0000 0.87522  0.31669  0.39295  Biso   1.000  H 
  O6865    1.0000 0.98942  0.36585  0.47982  Biso   1.000  O 
  O6866    1.0000 0.84286  0.36585  0.47817  Biso   1.000  O 
  O6867    1.0000 0.91805  0.36585  0.49208  Biso   1.000  O 
  O6868    1.0000 0.88580  0.30335  0.46882  Biso   1.000  O 
  O6869    1.0000 0.78236  0.30335  0.47047  Biso   1.000  O 
  O6870    1.0000 0.95717  0.30335  0.45657  Biso   1.000  O 
  O6871    1.0000 0.88580  0.25842  0.46882  Biso   1.000  O 
  O6872    1.0000 0.78236  0.25842  0.47047  Biso   1.000  O 
  O6873    1.0000 0.95717  0.25842  0.45657  Biso   1.000  O 
  O6874    1.0000 0.98942  0.32093  0.47982  Biso   1.000  O 
  O6875    1.0000 0.84286  0.32093  0.47817  Biso   1.000  O 
  O6876    1.0000 0.91805  0.32093  0.49208  Biso   1.000  O 
  Ca2641   1.0000 0.91678  0.37445  0.44721  Biso   1.000  Ca
  Ca2642   1.0000 0.83344  0.31196  0.44722  Biso   1.000  Ca
  Ca2643   1.0000 0.83344  0.37482  0.44722  Biso   1.000  Ca
  Ca2644   1.0000 0.91678  0.31231  0.44721  Biso   1.000  Ca
  Ca2645   1.0000 0.97006  0.34338  0.46097  Biso   1.000  Ca
  P1585    1.0000 0.99636  0.34338  0.48881  Biso   1.000  P 
  O6877    1.0000 0.85984  0.34338  0.45004  Biso   1.000  O 
  O6878    1.0000 0.76963  0.34338  0.49134  Biso   1.000  O 
  Ca2646   1.0000 0.87429  0.34338  0.47500  Biso   1.000  Ca
  P1586    1.0000 0.82904  0.34338  0.47819  Biso   1.000  P 
  O6879    1.0000 0.81700  0.34338  0.46298  Biso   1.000  O 
  O6880    1.0000 0.81449  0.34338  0.49206  Biso   1.000  O 
  Ca2647   1.0000 0.78099  0.34338  0.45990  Biso   1.000  Ca
  P1587    1.0000 0.92495  0.34338  0.48308  Biso   1.000  P 
  O6881    1.0000 0.94850  0.34338  0.48285  Biso   1.000  O 
  O6882    1.0000 0.91622  0.34338  0.46667  Biso   1.000  O 
  Ca2648   1.0000 0.90518  0.28089  0.48768  Biso   1.000  Ca
  P1588    1.0000 0.87886  0.28089  0.45983  Biso   1.000  P 
  O6883    1.0000 0.76539  0.28089  0.49861  Biso   1.000  O 
  O6884    1.0000 0.85560  0.28089  0.45731  Biso   1.000  O 
  Ca2649   1.0000 0.75093  0.28089  0.47365  Biso   1.000  Ca
  P1589    1.0000 0.79619  0.28089  0.47046  Biso   1.000  P 
  O6885    1.0000 0.80822  0.28089  0.48568  Biso   1.000  O 
  O6886    1.0000 0.81073  0.28089  0.45658  Biso   1.000  O 
  Ca2650   1.0000 0.84422  0.28089  0.48875  Biso   1.000  Ca
  P1590    1.0000 0.95028  0.28089  0.46557  Biso   1.000  P 
  O6887    1.0000 0.92672  0.28089  0.46579  Biso   1.000  O 
  O6888    1.0000 0.95900  0.28089  0.48197  Biso   1.000  O 
  O6889    1.0000 0.75011  0.27438  0.44722  Biso   1.000  O 
  O6890    1.0000 0.75011  0.33687  0.44722  Biso   1.000  O 
  H529     1.0000 0.75011  0.25420  0.44722  Biso   1.000  H 
  H530     1.0000 0.75022  0.31669  0.44717  Biso   1.000  H 
  O6891    1.0000 0.86442  0.36585  0.53404  Biso   1.000  O 
  O6892    1.0000 0.96786  0.36585  0.53239  Biso   1.000  O 
  O6893    1.0000 0.79305  0.36585  0.54629  Biso   1.000  O 
  O6894    1.0000 0.76080  0.30335  0.52304  Biso   1.000  O 
  O6895    1.0000 0.90736  0.30335  0.52469  Biso   1.000  O 
  O6896    1.0000 0.83217  0.30335  0.51079  Biso   1.000  O 
  O6897    1.0000 0.76080  0.25842  0.52304  Biso   1.000  O 
  O6898    1.0000 0.90736  0.25842  0.52469  Biso   1.000  O 
  O6899    1.0000 0.83217  0.25842  0.51079  Biso   1.000  O 
  O6900    1.0000 0.86442  0.32093  0.53404  Biso   1.000  O 
  O6901    1.0000 0.96786  0.32093  0.53239  Biso   1.000  O 
  O6902    1.0000 0.79305  0.32093  0.54629  Biso   1.000  O 
  Ca2651   1.0000 0.79178  0.37445  0.50143  Biso   1.000  Ca
  Ca2652   1.0000 0.95844  0.31196  0.50144  Biso   1.000  Ca
  Ca2653   1.0000 0.95844  0.37482  0.50144  Biso   1.000  Ca
  Ca2654   1.0000 0.79178  0.31231  0.50143  Biso   1.000  Ca
  Ca2655   1.0000 0.84506  0.34338  0.51519  Biso   1.000  Ca
  P1591    1.0000 0.87136  0.34338  0.54303  Biso   1.000  P 
  O6903    1.0000 0.98484  0.34338  0.50426  Biso   1.000  O 
  O6904    1.0000 0.89463  0.34338  0.54556  Biso   1.000  O 
  Ca2656   1.0000 0.99929  0.34338  0.52922  Biso   1.000  Ca
  P1592    1.0000 0.95404  0.34338  0.53241  Biso   1.000  P 
  O6905    1.0000 0.94200  0.34338  0.51720  Biso   1.000  O 
  O6906    1.0000 0.93949  0.34338  0.54628  Biso   1.000  O 
  Ca2657   1.0000 0.90599  0.34338  0.51412  Biso   1.000  Ca
  P1593    1.0000 0.79995  0.34338  0.53729  Biso   1.000  P 
  O6907    1.0000 0.82350  0.34338  0.53707  Biso   1.000  O 
  O6908    1.0000 0.79122  0.34338  0.52089  Biso   1.000  O 
  Ca2658   1.0000 0.78018  0.28089  0.54190  Biso   1.000  Ca
  P1594    1.0000 0.75386  0.28089  0.51405  Biso   1.000  P 
  O6909    1.0000 0.89039  0.28089  0.55283  Biso   1.000  O 
  O6910    1.0000 0.98060  0.28089  0.51152  Biso   1.000  O 
  Ca2659   1.0000 0.87593  0.28089  0.52786  Biso   1.000  Ca
  P1595    1.0000 0.92119  0.28089  0.52468  Biso   1.000  P 
  O6911    1.0000 0.93322  0.28089  0.53989  Biso   1.000  O 
  O6912    1.0000 0.93573  0.28089  0.51080  Biso   1.000  O 
  Ca2660   1.0000 0.96922  0.28089  0.54297  Biso   1.000  Ca
  P1596    1.0000 0.82528  0.28089  0.51979  Biso   1.000  P 
  O6913    1.0000 0.80172  0.28089  0.52001  Biso   1.000  O 
  O6914    1.0000 0.83400  0.28089  0.53619  Biso   1.000  O 
  O6915    1.0000 0.87511  0.27438  0.50143  Biso   1.000  O 
  O6916    1.0000 0.87511  0.33687  0.50143  Biso   1.000  O 
  H531     1.0000 0.87511  0.25420  0.50143  Biso   1.000  H 
  H532     1.0000 0.87522  0.31669  0.50139  Biso   1.000  H 
  O6917    1.0000 0.98942  0.36585  0.58826  Biso   1.000  O 
  O6918    1.0000 0.84286  0.36585  0.58661  Biso   1.000  O 
  O6919    1.0000 0.91805  0.36585  0.60051  Biso   1.000  O 
  O6920    1.0000 0.88580  0.30335  0.57726  Biso   1.000  O 
  O6921    1.0000 0.78236  0.30335  0.57891  Biso   1.000  O 
  O6922    1.0000 0.95717  0.30335  0.56500  Biso   1.000  O 
  O6923    1.0000 0.88580  0.25842  0.57726  Biso   1.000  O 
  O6924    1.0000 0.78236  0.25842  0.57891  Biso   1.000  O 
  O6925    1.0000 0.95717  0.25842  0.56500  Biso   1.000  O 
  O6926    1.0000 0.98942  0.32093  0.58826  Biso   1.000  O 
  O6927    1.0000 0.84286  0.32093  0.58661  Biso   1.000  O 
  O6928    1.0000 0.91805  0.32093  0.60051  Biso   1.000  O 
  Ca2661   1.0000 0.91678  0.37445  0.55565  Biso   1.000  Ca
  Ca2662   1.0000 0.83344  0.31196  0.55565  Biso   1.000  Ca
  Ca2663   1.0000 0.83344  0.37482  0.55565  Biso   1.000  Ca
  Ca2664   1.0000 0.91678  0.31231  0.55565  Biso   1.000  Ca
  Ca2665   1.0000 0.97006  0.34338  0.56941  Biso   1.000  Ca
  P1597    1.0000 0.99636  0.34338  0.59725  Biso   1.000  P 
  O6929    1.0000 0.85984  0.34338  0.55847  Biso   1.000  O 
  O6930    1.0000 0.76963  0.34338  0.59978  Biso   1.000  O 
  Ca2666   1.0000 0.87429  0.34338  0.58343  Biso   1.000  Ca
  P1598    1.0000 0.82904  0.34338  0.58662  Biso   1.000  P 
  O6931    1.0000 0.81700  0.34338  0.57141  Biso   1.000  O 
  O6932    1.0000 0.81449  0.34338  0.60050  Biso   1.000  O 
  Ca2667   1.0000 0.78099  0.34338  0.56834  Biso   1.000  Ca
  P1599    1.0000 0.92495  0.34338  0.59151  Biso   1.000  P 
  O6933    1.0000 0.94850  0.34338  0.59129  Biso   1.000  O 
  O6934    1.0000 0.91622  0.34338  0.57511  Biso   1.000  O 
  Ca2668   1.0000 0.90518  0.28089  0.59611  Biso   1.000  Ca
  P1600    1.0000 0.87886  0.28089  0.56827  Biso   1.000  P 
  O6935    1.0000 0.76539  0.28089  0.60705  Biso   1.000  O 
  O6936    1.0000 0.85560  0.28089  0.56574  Biso   1.000  O 
  Ca2669   1.0000 0.75093  0.28089  0.58208  Biso   1.000  Ca
  P1601    1.0000 0.79619  0.28089  0.57890  Biso   1.000  P 
  O6937    1.0000 0.80822  0.28089  0.59411  Biso   1.000  O 
  O6938    1.0000 0.81073  0.28089  0.56502  Biso   1.000  O 
  Ca2670   1.0000 0.84422  0.28089  0.59719  Biso   1.000  Ca
  P1602    1.0000 0.95028  0.28089  0.57400  Biso   1.000  P 
  O6939    1.0000 0.92672  0.28089  0.57423  Biso   1.000  O 
  O6940    1.0000 0.95900  0.28089  0.59041  Biso   1.000  O 
  O6941    1.0000 0.75011  0.27438  0.55565  Biso   1.000  O 
  O6942    1.0000 0.75011  0.33687  0.55565  Biso   1.000  O 
  H533     1.0000 0.75011  0.25420  0.55565  Biso   1.000  H 
  H534     1.0000 0.75022  0.31669  0.55561  Biso   1.000  H 
  O6943    1.0000 0.86442  0.36585  0.64248  Biso   1.000  O 
  O6944    1.0000 0.96786  0.36585  0.64083  Biso   1.000  O 
  O6945    1.0000 0.79305  0.36585  0.65473  Biso   1.000  O 
  O6946    1.0000 0.76080  0.30335  0.63147  Biso   1.000  O 
  O6947    1.0000 0.90736  0.30335  0.63313  Biso   1.000  O 
  O6948    1.0000 0.83217  0.30335  0.61922  Biso   1.000  O 
  O6949    1.0000 0.76080  0.25842  0.63147  Biso   1.000  O 
  O6950    1.0000 0.90736  0.25842  0.63313  Biso   1.000  O 
  O6951    1.0000 0.83217  0.25842  0.61922  Biso   1.000  O 
  O6952    1.0000 0.86442  0.32093  0.64248  Biso   1.000  O 
  O6953    1.0000 0.96786  0.32093  0.64083  Biso   1.000  O 
  O6954    1.0000 0.79305  0.32093  0.65473  Biso   1.000  O 
  Ca2671   1.0000 0.79178  0.37445  0.60986  Biso   1.000  Ca
  Ca2672   1.0000 0.95844  0.31196  0.60987  Biso   1.000  Ca
  Ca2673   1.0000 0.95844  0.37482  0.60987  Biso   1.000  Ca
  Ca2674   1.0000 0.79178  0.31231  0.60986  Biso   1.000  Ca
  Ca2675   1.0000 0.84506  0.34338  0.62363  Biso   1.000  Ca
  P1603    1.0000 0.87136  0.34338  0.65147  Biso   1.000  P 
  O6955    1.0000 0.98484  0.34338  0.61269  Biso   1.000  O 
  O6956    1.0000 0.89463  0.34338  0.65400  Biso   1.000  O 
  Ca2676   1.0000 0.99929  0.34338  0.63765  Biso   1.000  Ca
  P1604    1.0000 0.95404  0.34338  0.64084  Biso   1.000  P 
  O6957    1.0000 0.94200  0.34338  0.62563  Biso   1.000  O 
  O6958    1.0000 0.93949  0.34338  0.65471  Biso   1.000  O 
  Ca2677   1.0000 0.90599  0.34338  0.62255  Biso   1.000  Ca
  P1605    1.0000 0.79995  0.34338  0.64573  Biso   1.000  P 
  O6959    1.0000 0.82350  0.34338  0.64551  Biso   1.000  O 
  O6960    1.0000 0.79122  0.34338  0.62933  Biso   1.000  O 
  Ca2678   1.0000 0.78018  0.28089  0.65033  Biso   1.000  Ca
  P1606    1.0000 0.75386  0.28089  0.62248  Biso   1.000  P 
  O6961    1.0000 0.89039  0.28089  0.66127  Biso   1.000  O 
  O6962    1.0000 0.98060  0.28089  0.61996  Biso   1.000  O 
  Ca2679   1.0000 0.87593  0.28089  0.63630  Biso   1.000  Ca
  P1607    1.0000 0.92119  0.28089  0.63312  Biso   1.000  P 
  O6963    1.0000 0.93322  0.28089  0.64833  Biso   1.000  O 
  O6964    1.0000 0.93573  0.28089  0.61924  Biso   1.000  O 
  Ca2680   1.0000 0.96922  0.28089  0.65141  Biso   1.000  Ca
  P1608    1.0000 0.82528  0.28089  0.62822  Biso   1.000  P 
  O6965    1.0000 0.80172  0.28089  0.62845  Biso   1.000  O 
  O6966    1.0000 0.83400  0.28089  0.64462  Biso   1.000  O 
  O6967    1.0000 0.87511  0.27438  0.60987  Biso   1.000  O 
  O6968    1.0000 0.87511  0.33687  0.60987  Biso   1.000  O 
  H535     1.0000 0.87511  0.25420  0.60987  Biso   1.000  H 
  H536     1.0000 0.87522  0.31669  0.60982  Biso   1.000  H 
  O6969    1.0000 0.98942  0.36585  0.69670  Biso   1.000  O 
  O6970    1.0000 0.84286  0.36585  0.69504  Biso   1.000  O 
  O6971    1.0000 0.91805  0.36585  0.70895  Biso   1.000  O 
  O6972    1.0000 0.88580  0.30335  0.68569  Biso   1.000  O 
  O6973    1.0000 0.78236  0.30335  0.68734  Biso   1.000  O 
  O6974    1.0000 0.95717  0.30335  0.67344  Biso   1.000  O 
  O6975    1.0000 0.88580  0.25842  0.68569  Biso   1.000  O 
  O6976    1.0000 0.78236  0.25842  0.68734  Biso   1.000  O 
  O6977    1.0000 0.95717  0.25842  0.67344  Biso   1.000  O 
  O6978    1.0000 0.98942  0.32093  0.69670  Biso   1.000  O 
  O6979    1.0000 0.84286  0.32093  0.69504  Biso   1.000  O 
  O6980    1.0000 0.91805  0.32093  0.70895  Biso   1.000  O 
  Ca2681   1.0000 0.91678  0.37445  0.66408  Biso   1.000  Ca
  Ca2682   1.0000 0.83344  0.31196  0.66409  Biso   1.000  Ca
  Ca2683   1.0000 0.83344  0.37482  0.66409  Biso   1.000  Ca
  Ca2684   1.0000 0.91678  0.31231  0.66408  Biso   1.000  Ca
  Ca2685   1.0000 0.97006  0.34338  0.67784  Biso   1.000  Ca
  P1609    1.0000 0.99636  0.34338  0.70569  Biso   1.000  P 
  O6981    1.0000 0.85984  0.34338  0.66691  Biso   1.000  O 
  O6982    1.0000 0.76963  0.34338  0.70822  Biso   1.000  O 
  Ca2686   1.0000 0.87429  0.34338  0.69187  Biso   1.000  Ca
  P1610    1.0000 0.82904  0.34338  0.69506  Biso   1.000  P 
  O6983    1.0000 0.81700  0.34338  0.67985  Biso   1.000  O 
  O6984    1.0000 0.81449  0.34338  0.70893  Biso   1.000  O 
  Ca2687   1.0000 0.78099  0.34338  0.67677  Biso   1.000  Ca
  P1611    1.0000 0.92495  0.34338  0.69995  Biso   1.000  P 
  O6985    1.0000 0.94850  0.34338  0.69973  Biso   1.000  O 
  O6986    1.0000 0.91622  0.34338  0.68355  Biso   1.000  O 
  Ca2688   1.0000 0.90518  0.28089  0.70455  Biso   1.000  Ca
  P1612    1.0000 0.87886  0.28089  0.67670  Biso   1.000  P 
  O6987    1.0000 0.76539  0.28089  0.71548  Biso   1.000  O 
  O6988    1.0000 0.85560  0.28089  0.67418  Biso   1.000  O 
  Ca2689   1.0000 0.75093  0.28089  0.69052  Biso   1.000  Ca
  P1613    1.0000 0.79619  0.28089  0.68733  Biso   1.000  P 
  O6989    1.0000 0.80822  0.28089  0.70255  Biso   1.000  O 
  O6990    1.0000 0.81073  0.28089  0.67346  Biso   1.000  O 
  Ca2690   1.0000 0.84422  0.28089  0.70563  Biso   1.000  Ca
  P1614    1.0000 0.95028  0.28089  0.68244  Biso   1.000  P 
  O6991    1.0000 0.92672  0.28089  0.68266  Biso   1.000  O 
  O6992    1.0000 0.95900  0.28089  0.69884  Biso   1.000  O 
  O6993    1.0000 0.75011  0.27438  0.66409  Biso   1.000  O 
  O6994    1.0000 0.75011  0.33687  0.66409  Biso   1.000  O 
  H537     1.0000 0.75011  0.25420  0.66409  Biso   1.000  H 
  H538     1.0000 0.75022  0.31669  0.66404  Biso   1.000  H 
  O6995    1.0000 0.86442  0.36585  0.75091  Biso   1.000  O 
  O6996    1.0000 0.96786  0.36585  0.74926  Biso   1.000  O 
  O6997    1.0000 0.79305  0.36585  0.76317  Biso   1.000  O 
  O6998    1.0000 0.76080  0.30335  0.73991  Biso   1.000  O 
  O6999    1.0000 0.90736  0.30335  0.74156  Biso   1.000  O 
  O7000    1.0000 0.83217  0.30335  0.72766  Biso   1.000  O 
  O7001    1.0000 0.76080  0.25842  0.73991  Biso   1.000  O 
  O7002    1.0000 0.90736  0.25842  0.74156  Biso   1.000  O 
  O7003    1.0000 0.83217  0.25842  0.72766  Biso   1.000  O 
  O7004    1.0000 0.86442  0.32093  0.75091  Biso   1.000  O 
  O7005    1.0000 0.96786  0.32093  0.74926  Biso   1.000  O 
  O7006    1.0000 0.79305  0.32093  0.76317  Biso   1.000  O 
  Ca2691   1.0000 0.79178  0.37445  0.71830  Biso   1.000  Ca
  Ca2692   1.0000 0.95844  0.31196  0.71831  Biso   1.000  Ca
  Ca2693   1.0000 0.95844  0.37482  0.71831  Biso   1.000  Ca
  Ca2694   1.0000 0.79178  0.31231  0.71830  Biso   1.000  Ca
  Ca2695   1.0000 0.84506  0.34338  0.73206  Biso   1.000  Ca
  P1615    1.0000 0.87136  0.34338  0.75990  Biso   1.000  P 
  O7007    1.0000 0.98484  0.34338  0.72113  Biso   1.000  O 
  O7008    1.0000 0.89463  0.34338  0.76243  Biso   1.000  O 
  Ca2696   1.0000 0.99929  0.34338  0.74609  Biso   1.000  Ca
  P1616    1.0000 0.95404  0.34338  0.74928  Biso   1.000  P 
  O7009    1.0000 0.94200  0.34338  0.73407  Biso   1.000  O 
  O7010    1.0000 0.93949  0.34338  0.76315  Biso   1.000  O 
  Ca2697   1.0000 0.90599  0.34338  0.73099  Biso   1.000  Ca
  P1617    1.0000 0.79995  0.34338  0.75417  Biso   1.000  P 
  O7011    1.0000 0.82350  0.34338  0.75394  Biso   1.000  O 
  O7012    1.0000 0.79122  0.34338  0.73776  Biso   1.000  O 
  Ca2698   1.0000 0.78018  0.28089  0.75877  Biso   1.000  Ca
  P1618    1.0000 0.75386  0.28089  0.73092  Biso   1.000  P 
  O7013    1.0000 0.89039  0.28089  0.76970  Biso   1.000  O 
  O7014    1.0000 0.98060  0.28089  0.72840  Biso   1.000  O 
  Ca2699   1.0000 0.87593  0.28089  0.74474  Biso   1.000  Ca
  P1619    1.0000 0.92119  0.28089  0.74155  Biso   1.000  P 
  O7015    1.0000 0.93322  0.28089  0.75677  Biso   1.000  O 
  O7016    1.0000 0.93573  0.28089  0.72767  Biso   1.000  O 
  Ca2700   1.0000 0.96922  0.28089  0.75984  Biso   1.000  Ca
  P1620    1.0000 0.82528  0.28089  0.73666  Biso   1.000  P 
  O7017    1.0000 0.80172  0.28089  0.73688  Biso   1.000  O 
  O7018    1.0000 0.83400  0.28089  0.75306  Biso   1.000  O 
  O7019    1.0000 0.87511  0.27438  0.71831  Biso   1.000  O 
  O7020    1.0000 0.87511  0.33687  0.71831  Biso   1.000  O 
  H539     1.0000 0.87511  0.25420  0.71831  Biso   1.000  H 
  H540     1.0000 0.87522  0.31669  0.71826  Biso   1.000  H 
  O7021    1.0000 0.98942  0.49085  0.26295  Biso   1.000  O 
  O7022    1.0000 0.84286  0.49085  0.26130  Biso   1.000  O 
  O7023    1.0000 0.91805  0.49085  0.27520  Biso   1.000  O 
  O7024    1.0000 0.88580  0.42835  0.25195  Biso   1.000  O 
  O7025    1.0000 0.78236  0.42835  0.25360  Biso   1.000  O 
  O7026    1.0000 0.95717  0.42835  0.23970  Biso   1.000  O 
  O7027    1.0000 0.88580  0.38342  0.25195  Biso   1.000  O 
  O7028    1.0000 0.78236  0.38342  0.25360  Biso   1.000  O 
  O7029    1.0000 0.95717  0.38342  0.23970  Biso   1.000  O 
  O7030    1.0000 0.98942  0.44593  0.26295  Biso   1.000  O 
  O7031    1.0000 0.84286  0.44593  0.26130  Biso   1.000  O 
  O7032    1.0000 0.91805  0.44593  0.27520  Biso   1.000  O 
  Ca2701   1.0000 0.91678  0.49945  0.23034  Biso   1.000  Ca
  Ca2702   1.0000 0.83344  0.43696  0.23035  Biso   1.000  Ca
  Ca2703   1.0000 0.83344  0.49982  0.23035  Biso   1.000  Ca
  Ca2704   1.0000 0.91678  0.43731  0.23034  Biso   1.000  Ca
  Ca2705   1.0000 0.97006  0.46838  0.24410  Biso   1.000  Ca
  P1621    1.0000 0.99636  0.46838  0.27194  Biso   1.000  P 
  O7033    1.0000 0.85984  0.46838  0.23317  Biso   1.000  O 
  O7034    1.0000 0.76963  0.46838  0.27447  Biso   1.000  O 
  Ca2706   1.0000 0.87429  0.46838  0.25813  Biso   1.000  Ca
  P1622    1.0000 0.82904  0.46838  0.26132  Biso   1.000  P 
  O7035    1.0000 0.81700  0.46838  0.24611  Biso   1.000  O 
  O7036    1.0000 0.81449  0.46838  0.27519  Biso   1.000  O 
  Ca2707   1.0000 0.78099  0.46838  0.24303  Biso   1.000  Ca
  P1623    1.0000 0.92495  0.46838  0.26620  Biso   1.000  P 
  O7037    1.0000 0.94850  0.46838  0.26598  Biso   1.000  O 
  O7038    1.0000 0.91622  0.46838  0.24980  Biso   1.000  O 
  Ca2708   1.0000 0.90518  0.40589  0.27081  Biso   1.000  Ca
  P1624    1.0000 0.87886  0.40589  0.24296  Biso   1.000  P 
  O7039    1.0000 0.76539  0.40589  0.28174  Biso   1.000  O 
  O7040    1.0000 0.85560  0.40589  0.24043  Biso   1.000  O 
  Ca2709   1.0000 0.75093  0.40589  0.25677  Biso   1.000  Ca
  P1625    1.0000 0.79619  0.40589  0.25359  Biso   1.000  P 
  O7041    1.0000 0.80822  0.40589  0.26880  Biso   1.000  O 
  O7042    1.0000 0.81073  0.40589  0.23971  Biso   1.000  O 
  Ca2710   1.0000 0.84422  0.40589  0.27188  Biso   1.000  Ca
  P1626    1.0000 0.95028  0.40589  0.24870  Biso   1.000  P 
  O7043    1.0000 0.92672  0.40589  0.24892  Biso   1.000  O 
  O7044    1.0000 0.95900  0.40589  0.26510  Biso   1.000  O 
  O7045    1.0000 0.75011  0.39938  0.23034  Biso   1.000  O 
  O7046    1.0000 0.75011  0.46187  0.23034  Biso   1.000  O 
  H541     1.0000 0.75011  0.37920  0.23034  Biso   1.000  H 
  H542     1.0000 0.75022  0.44169  0.23030  Biso   1.000  H 
  O7047    1.0000 0.86442  0.49085  0.31717  Biso   1.000  O 
  O7048    1.0000 0.96786  0.49085  0.31552  Biso   1.000  O 
  O7049    1.0000 0.79305  0.49085  0.32942  Biso   1.000  O 
  O7050    1.0000 0.76080  0.42835  0.30617  Biso   1.000  O 
  O7051    1.0000 0.90736  0.42835  0.30782  Biso   1.000  O 
  O7052    1.0000 0.83217  0.42835  0.29391  Biso   1.000  O 
  O7053    1.0000 0.76080  0.38342  0.30617  Biso   1.000  O 
  O7054    1.0000 0.90736  0.38342  0.30782  Biso   1.000  O 
  O7055    1.0000 0.83217  0.38342  0.29391  Biso   1.000  O 
  O7056    1.0000 0.86442  0.44593  0.31717  Biso   1.000  O 
  O7057    1.0000 0.96786  0.44593  0.31552  Biso   1.000  O 
  O7058    1.0000 0.79305  0.44593  0.32942  Biso   1.000  O 
  Ca2711   1.0000 0.79178  0.49945  0.28456  Biso   1.000  Ca
  Ca2712   1.0000 0.95844  0.43696  0.28456  Biso   1.000  Ca
  Ca2713   1.0000 0.95844  0.49982  0.28456  Biso   1.000  Ca
  Ca2714   1.0000 0.79178  0.43731  0.28456  Biso   1.000  Ca
  Ca2715   1.0000 0.84506  0.46838  0.29832  Biso   1.000  Ca
  P1627    1.0000 0.87136  0.46838  0.32616  Biso   1.000  P 
  O7059    1.0000 0.98484  0.46838  0.28738  Biso   1.000  O 
  O7060    1.0000 0.89463  0.46838  0.32869  Biso   1.000  O 
  Ca2716   1.0000 0.99929  0.46838  0.31234  Biso   1.000  Ca
  P1628    1.0000 0.95404  0.46838  0.31554  Biso   1.000  P 
  O7061    1.0000 0.94200  0.46838  0.30033  Biso   1.000  O 
  O7062    1.0000 0.93949  0.46838  0.32941  Biso   1.000  O 
  Ca2717   1.0000 0.90599  0.46838  0.29725  Biso   1.000  Ca
  P1629    1.0000 0.79995  0.46838  0.32042  Biso   1.000  P 
  O7063    1.0000 0.82350  0.46838  0.32020  Biso   1.000  O 
  O7064    1.0000 0.79122  0.46838  0.30402  Biso   1.000  O 
  Ca2718   1.0000 0.78018  0.40589  0.32502  Biso   1.000  Ca
  P1630    1.0000 0.75386  0.40589  0.29718  Biso   1.000  P 
  O7065    1.0000 0.89039  0.40589  0.33596  Biso   1.000  O 
  O7066    1.0000 0.98060  0.40589  0.29465  Biso   1.000  O 
  Ca2719   1.0000 0.87593  0.40589  0.31099  Biso   1.000  Ca
  P1631    1.0000 0.92119  0.40589  0.30781  Biso   1.000  P 
  O7067    1.0000 0.93322  0.40589  0.32302  Biso   1.000  O 
  O7068    1.0000 0.93573  0.40589  0.29393  Biso   1.000  O 
  Ca2720   1.0000 0.96922  0.40589  0.32610  Biso   1.000  Ca
  P1632    1.0000 0.82528  0.40589  0.30291  Biso   1.000  P 
  O7069    1.0000 0.80172  0.40589  0.30314  Biso   1.000  O 
  O7070    1.0000 0.83400  0.40589  0.31932  Biso   1.000  O 
  O7071    1.0000 0.87511  0.39938  0.28456  Biso   1.000  O 
  O7072    1.0000 0.87511  0.46187  0.28456  Biso   1.000  O 
  H543     1.0000 0.87511  0.37920  0.28456  Biso   1.000  H 
  H544     1.0000 0.87522  0.44169  0.28452  Biso   1.000  H 
  O7073    1.0000 0.98942  0.49085  0.37139  Biso   1.000  O 
  O7074    1.0000 0.84286  0.49085  0.36974  Biso   1.000  O 
  O7075    1.0000 0.91805  0.49085  0.38364  Biso   1.000  O 
  O7076    1.0000 0.88580  0.42835  0.36038  Biso   1.000  O 
  O7077    1.0000 0.78236  0.42835  0.36204  Biso   1.000  O 
  O7078    1.0000 0.95717  0.42835  0.34813  Biso   1.000  O 
  O7079    1.0000 0.88580  0.38342  0.36038  Biso   1.000  O 
  O7080    1.0000 0.78236  0.38342  0.36204  Biso   1.000  O 
  O7081    1.0000 0.95717  0.38342  0.34813  Biso   1.000  O 
  O7082    1.0000 0.98942  0.44593  0.37139  Biso   1.000  O 
  O7083    1.0000 0.84286  0.44593  0.36974  Biso   1.000  O 
  O7084    1.0000 0.91805  0.44593  0.38364  Biso   1.000  O 
  Ca2721   1.0000 0.91678  0.49945  0.33877  Biso   1.000  Ca
  Ca2722   1.0000 0.83344  0.43696  0.33878  Biso   1.000  Ca
  Ca2723   1.0000 0.83344  0.49982  0.33878  Biso   1.000  Ca
  Ca2724   1.0000 0.91678  0.43731  0.33877  Biso   1.000  Ca
  Ca2725   1.0000 0.97006  0.46838  0.35254  Biso   1.000  Ca
  P1633    1.0000 0.99636  0.46838  0.38038  Biso   1.000  P 
  O7085    1.0000 0.85984  0.46838  0.34160  Biso   1.000  O 
  O7086    1.0000 0.76963  0.46838  0.38291  Biso   1.000  O 
  Ca2726   1.0000 0.87429  0.46838  0.36656  Biso   1.000  Ca
  P1634    1.0000 0.82904  0.46838  0.36975  Biso   1.000  P 
  O7087    1.0000 0.81700  0.46838  0.35454  Biso   1.000  O 
  O7088    1.0000 0.81449  0.46838  0.38362  Biso   1.000  O 
  Ca2727   1.0000 0.78099  0.46838  0.35146  Biso   1.000  Ca
  P1635    1.0000 0.92495  0.46838  0.37464  Biso   1.000  P 
  O7089    1.0000 0.94850  0.46838  0.37442  Biso   1.000  O 
  O7090    1.0000 0.91622  0.46838  0.35824  Biso   1.000  O 
  Ca2728   1.0000 0.90518  0.40589  0.37924  Biso   1.000  Ca
  P1636    1.0000 0.87886  0.40589  0.35140  Biso   1.000  P 
  O7091    1.0000 0.76539  0.40589  0.39018  Biso   1.000  O 
  O7092    1.0000 0.85560  0.40589  0.34887  Biso   1.000  O 
  Ca2729   1.0000 0.75093  0.40589  0.36521  Biso   1.000  Ca
  P1637    1.0000 0.79619  0.40589  0.36203  Biso   1.000  P 
  O7093    1.0000 0.80822  0.40589  0.37724  Biso   1.000  O 
  O7094    1.0000 0.81073  0.40589  0.34815  Biso   1.000  O 
  Ca2730   1.0000 0.84422  0.40589  0.38032  Biso   1.000  Ca
  P1638    1.0000 0.95028  0.40589  0.35713  Biso   1.000  P 
  O7095    1.0000 0.92672  0.40589  0.35736  Biso   1.000  O 
  O7096    1.0000 0.95900  0.40589  0.37353  Biso   1.000  O 
  O7097    1.0000 0.75011  0.39938  0.33878  Biso   1.000  O 
  O7098    1.0000 0.75011  0.46187  0.33878  Biso   1.000  O 
  H545     1.0000 0.75011  0.37920  0.33878  Biso   1.000  H 
  H546     1.0000 0.75022  0.44169  0.33873  Biso   1.000  H 
  O7099    1.0000 0.86442  0.49085  0.42561  Biso   1.000  O 
  O7100    1.0000 0.96786  0.49085  0.42395  Biso   1.000  O 
  O7101    1.0000 0.79305  0.49085  0.43786  Biso   1.000  O 
  O7102    1.0000 0.76080  0.42835  0.41460  Biso   1.000  O 
  O7103    1.0000 0.90736  0.42835  0.41625  Biso   1.000  O 
  O7104    1.0000 0.83217  0.42835  0.40235  Biso   1.000  O 
  O7105    1.0000 0.76080  0.38342  0.41460  Biso   1.000  O 
  O7106    1.0000 0.90736  0.38342  0.41625  Biso   1.000  O 
  O7107    1.0000 0.83217  0.38342  0.40235  Biso   1.000  O 
  O7108    1.0000 0.86442  0.44593  0.42561  Biso   1.000  O 
  O7109    1.0000 0.96786  0.44593  0.42395  Biso   1.000  O 
  O7110    1.0000 0.79305  0.44593  0.43786  Biso   1.000  O 
  Ca2731   1.0000 0.79178  0.49945  0.39299  Biso   1.000  Ca
  Ca2732   1.0000 0.95844  0.43696  0.39300  Biso   1.000  Ca
  Ca2733   1.0000 0.95844  0.49982  0.39300  Biso   1.000  Ca
  Ca2734   1.0000 0.79178  0.43731  0.39299  Biso   1.000  Ca
  Ca2735   1.0000 0.84506  0.46838  0.40675  Biso   1.000  Ca
  P1639    1.0000 0.87136  0.46838  0.43460  Biso   1.000  P 
  O7111    1.0000 0.98484  0.46838  0.39582  Biso   1.000  O 
  O7112    1.0000 0.89463  0.46838  0.43713  Biso   1.000  O 
  Ca2736   1.0000 0.99929  0.46838  0.42078  Biso   1.000  Ca
  P1640    1.0000 0.95404  0.46838  0.42397  Biso   1.000  P 
  O7113    1.0000 0.94200  0.46838  0.40876  Biso   1.000  O 
  O7114    1.0000 0.93949  0.46838  0.43784  Biso   1.000  O 
  Ca2737   1.0000 0.90599  0.46838  0.40568  Biso   1.000  Ca
  P1641    1.0000 0.79995  0.46838  0.42886  Biso   1.000  P 
  O7115    1.0000 0.82350  0.46838  0.42864  Biso   1.000  O 
  O7116    1.0000 0.79122  0.46838  0.41246  Biso   1.000  O 
  Ca2738   1.0000 0.78018  0.40589  0.43346  Biso   1.000  Ca
  P1642    1.0000 0.75386  0.40589  0.40561  Biso   1.000  P 
  O7117    1.0000 0.89039  0.40589  0.44439  Biso   1.000  O 
  O7118    1.0000 0.98060  0.40589  0.40309  Biso   1.000  O 
  Ca2739   1.0000 0.87593  0.40589  0.41943  Biso   1.000  Ca
  P1643    1.0000 0.92119  0.40589  0.41624  Biso   1.000  P 
  O7119    1.0000 0.93322  0.40589  0.43146  Biso   1.000  O 
  O7120    1.0000 0.93573  0.40589  0.40237  Biso   1.000  O 
  Ca2740   1.0000 0.96922  0.40589  0.43454  Biso   1.000  Ca
  P1644    1.0000 0.82528  0.40589  0.41135  Biso   1.000  P 
  O7121    1.0000 0.80172  0.40589  0.41157  Biso   1.000  O 
  O7122    1.0000 0.83400  0.40589  0.42775  Biso   1.000  O 
  O7123    1.0000 0.87511  0.39938  0.39300  Biso   1.000  O 
  O7124    1.0000 0.87511  0.46187  0.39300  Biso   1.000  O 
  H547     1.0000 0.87511  0.37920  0.39300  Biso   1.000  H 
  H548     1.0000 0.87522  0.44169  0.39295  Biso   1.000  H 
  O7125    1.0000 0.98942  0.49085  0.47982  Biso   1.000  O 
  O7126    1.0000 0.84286  0.49085  0.47817  Biso   1.000  O 
  O7127    1.0000 0.91805  0.49085  0.49208  Biso   1.000  O 
  O7128    1.0000 0.88580  0.42835  0.46882  Biso   1.000  O 
  O7129    1.0000 0.78236  0.42835  0.47047  Biso   1.000  O 
  O7130    1.0000 0.95717  0.42835  0.45657  Biso   1.000  O 
  O7131    1.0000 0.88580  0.38342  0.46882  Biso   1.000  O 
  O7132    1.0000 0.78236  0.38342  0.47047  Biso   1.000  O 
  O7133    1.0000 0.95717  0.38342  0.45657  Biso   1.000  O 
  O7134    1.0000 0.98942  0.44593  0.47982  Biso   1.000  O 
  O7135    1.0000 0.84286  0.44593  0.47817  Biso   1.000  O 
  O7136    1.0000 0.91805  0.44593  0.49208  Biso   1.000  O 
  Ca2741   1.0000 0.91678  0.49945  0.44721  Biso   1.000  Ca
  Ca2742   1.0000 0.83344  0.43696  0.44722  Biso   1.000  Ca
  Ca2743   1.0000 0.83344  0.49982  0.44722  Biso   1.000  Ca
  Ca2744   1.0000 0.91678  0.43731  0.44721  Biso   1.000  Ca
  Ca2745   1.0000 0.97006  0.46838  0.46097  Biso   1.000  Ca
  P1645    1.0000 0.99636  0.46838  0.48881  Biso   1.000  P 
  O7137    1.0000 0.85984  0.46838  0.45004  Biso   1.000  O 
  O7138    1.0000 0.76963  0.46838  0.49134  Biso   1.000  O 
  Ca2746   1.0000 0.87429  0.46838  0.47500  Biso   1.000  Ca
  P1646    1.0000 0.82904  0.46838  0.47819  Biso   1.000  P 
  O7139    1.0000 0.81700  0.46838  0.46298  Biso   1.000  O 
  O7140    1.0000 0.81449  0.46838  0.49206  Biso   1.000  O 
  Ca2747   1.0000 0.78099  0.46838  0.45990  Biso   1.000  Ca
  P1647    1.0000 0.92495  0.46838  0.48308  Biso   1.000  P 
  O7141    1.0000 0.94850  0.46838  0.48285  Biso   1.000  O 
  O7142    1.0000 0.91622  0.46838  0.46667  Biso   1.000  O 
  Ca2748   1.0000 0.90518  0.40589  0.48768  Biso   1.000  Ca
  P1648    1.0000 0.87886  0.40589  0.45983  Biso   1.000  P 
  O7143    1.0000 0.76539  0.40589  0.49861  Biso   1.000  O 
  O7144    1.0000 0.85560  0.40589  0.45731  Biso   1.000  O 
  Ca2749   1.0000 0.75093  0.40589  0.47365  Biso   1.000  Ca
  P1649    1.0000 0.79619  0.40589  0.47046  Biso   1.000  P 
  O7145    1.0000 0.80822  0.40589  0.48568  Biso   1.000  O 
  O7146    1.0000 0.81073  0.40589  0.45658  Biso   1.000  O 
  Ca2750   1.0000 0.84422  0.40589  0.48875  Biso   1.000  Ca
  P1650    1.0000 0.95028  0.40589  0.46557  Biso   1.000  P 
  O7147    1.0000 0.92672  0.40589  0.46579  Biso   1.000  O 
  O7148    1.0000 0.95900  0.40589  0.48197  Biso   1.000  O 
  O7149    1.0000 0.75011  0.39938  0.44722  Biso   1.000  O 
  O7150    1.0000 0.75011  0.46187  0.44722  Biso   1.000  O 
  H549     1.0000 0.75011  0.37920  0.44722  Biso   1.000  H 
  H550     1.0000 0.75022  0.44169  0.44717  Biso   1.000  H 
  O7151    1.0000 0.86442  0.49085  0.53404  Biso   1.000  O 
  O7152    1.0000 0.96786  0.49085  0.53239  Biso   1.000  O 
  O7153    1.0000 0.79305  0.49085  0.54629  Biso   1.000  O 
  O7154    1.0000 0.76080  0.42835  0.52304  Biso   1.000  O 
  O7155    1.0000 0.90736  0.42835  0.52469  Biso   1.000  O 
  O7156    1.0000 0.83217  0.42835  0.51079  Biso   1.000  O 
  O7157    1.0000 0.76080  0.38342  0.52304  Biso   1.000  O 
  O7158    1.0000 0.90736  0.38342  0.52469  Biso   1.000  O 
  O7159    1.0000 0.83217  0.38342  0.51079  Biso   1.000  O 
  O7160    1.0000 0.86442  0.44593  0.53404  Biso   1.000  O 
  O7161    1.0000 0.96786  0.44593  0.53239  Biso   1.000  O 
  O7162    1.0000 0.79305  0.44593  0.54629  Biso   1.000  O 
  Ca2751   1.0000 0.79178  0.49945  0.50143  Biso   1.000  Ca
  Ca2752   1.0000 0.95844  0.43696  0.50144  Biso   1.000  Ca
  Ca2753   1.0000 0.95844  0.49982  0.50144  Biso   1.000  Ca
  Ca2754   1.0000 0.79178  0.43731  0.50143  Biso   1.000  Ca
  Ca2755   1.0000 0.84506  0.46838  0.51519  Biso   1.000  Ca
  P1651    1.0000 0.87136  0.46838  0.54303  Biso   1.000  P 
  O7163    1.0000 0.98484  0.46838  0.50426  Biso   1.000  O 
  O7164    1.0000 0.89463  0.46838  0.54556  Biso   1.000  O 
  Ca2756   1.0000 0.99929  0.46838  0.52922  Biso   1.000  Ca
  P1652    1.0000 0.95404  0.46838  0.53241  Biso   1.000  P 
  O7165    1.0000 0.94200  0.46838  0.51720  Biso   1.000  O 
  O7166    1.0000 0.93949  0.46838  0.54628  Biso   1.000  O 
  Ca2757   1.0000 0.90599  0.46838  0.51412  Biso   1.000  Ca
  P1653    1.0000 0.79995  0.46838  0.53729  Biso   1.000  P 
  O7167    1.0000 0.82350  0.46838  0.53707  Biso   1.000  O 
  O7168    1.0000 0.79122  0.46838  0.52089  Biso   1.000  O 
  Ca2758   1.0000 0.78018  0.40589  0.54190  Biso   1.000  Ca
  P1654    1.0000 0.75386  0.40589  0.51405  Biso   1.000  P 
  O7169    1.0000 0.89039  0.40589  0.55283  Biso   1.000  O 
  O7170    1.0000 0.98060  0.40589  0.51152  Biso   1.000  O 
  Ca2759   1.0000 0.87593  0.40589  0.52786  Biso   1.000  Ca
  P1655    1.0000 0.92119  0.40589  0.52468  Biso   1.000  P 
  O7171    1.0000 0.93322  0.40589  0.53989  Biso   1.000  O 
  O7172    1.0000 0.93573  0.40589  0.51080  Biso   1.000  O 
  Ca2760   1.0000 0.96922  0.40589  0.54297  Biso   1.000  Ca
  P1656    1.0000 0.82528  0.40589  0.51979  Biso   1.000  P 
  O7173    1.0000 0.80172  0.40589  0.52001  Biso   1.000  O 
  O7174    1.0000 0.83400  0.40589  0.53619  Biso   1.000  O 
  O7175    1.0000 0.87511  0.39938  0.50143  Biso   1.000  O 
  O7176    1.0000 0.87511  0.46187  0.50143  Biso   1.000  O 
  H551     1.0000 0.87511  0.37920  0.50143  Biso   1.000  H 
  H552     1.0000 0.87522  0.44169  0.50139  Biso   1.000  H 
  O7177    1.0000 0.98942  0.49085  0.58826  Biso   1.000  O 
  O7178    1.0000 0.84286  0.49085  0.58661  Biso   1.000  O 
  O7179    1.0000 0.91805  0.49085  0.60051  Biso   1.000  O 
  O7180    1.0000 0.88580  0.42835  0.57726  Biso   1.000  O 
  O7181    1.0000 0.78236  0.42835  0.57891  Biso   1.000  O 
  O7182    1.0000 0.95717  0.42835  0.56500  Biso   1.000  O 
  O7183    1.0000 0.88580  0.38342  0.57726  Biso   1.000  O 
  O7184    1.0000 0.78236  0.38342  0.57891  Biso   1.000  O 
  O7185    1.0000 0.95717  0.38342  0.56500  Biso   1.000  O 
  O7186    1.0000 0.98942  0.44593  0.58826  Biso   1.000  O 
  O7187    1.0000 0.84286  0.44593  0.58661  Biso   1.000  O 
  O7188    1.0000 0.91805  0.44593  0.60051  Biso   1.000  O 
  Ca2761   1.0000 0.91678  0.49945  0.55565  Biso   1.000  Ca
  Ca2762   1.0000 0.83344  0.43696  0.55565  Biso   1.000  Ca
  Ca2763   1.0000 0.83344  0.49982  0.55565  Biso   1.000  Ca
  Ca2764   1.0000 0.91678  0.43731  0.55565  Biso   1.000  Ca
  Ca2765   1.0000 0.97006  0.46838  0.56941  Biso   1.000  Ca
  P1657    1.0000 0.99636  0.46838  0.59725  Biso   1.000  P 
  O7189    1.0000 0.85984  0.46838  0.55847  Biso   1.000  O 
  O7190    1.0000 0.76963  0.46838  0.59978  Biso   1.000  O 
  Ca2766   1.0000 0.87429  0.46838  0.58343  Biso   1.000  Ca
  P1658    1.0000 0.82904  0.46838  0.58662  Biso   1.000  P 
  O7191    1.0000 0.81700  0.46838  0.57141  Biso   1.000  O 
  O7192    1.0000 0.81449  0.46838  0.60050  Biso   1.000  O 
  Ca2767   1.0000 0.78099  0.46838  0.56834  Biso   1.000  Ca
  P1659    1.0000 0.92495  0.46838  0.59151  Biso   1.000  P 
  O7193    1.0000 0.94850  0.46838  0.59129  Biso   1.000  O 
  O7194    1.0000 0.91622  0.46838  0.57511  Biso   1.000  O 
  Ca2768   1.0000 0.90518  0.40589  0.59611  Biso   1.000  Ca
  P1660    1.0000 0.87886  0.40589  0.56827  Biso   1.000  P 
  O7195    1.0000 0.76539  0.40589  0.60705  Biso   1.000  O 
  O7196    1.0000 0.85560  0.40589  0.56574  Biso   1.000  O 
  Ca2769   1.0000 0.75093  0.40589  0.58208  Biso   1.000  Ca
  P1661    1.0000 0.79619  0.40589  0.57890  Biso   1.000  P 
  O7197    1.0000 0.80822  0.40589  0.59411  Biso   1.000  O 
  O7198    1.0000 0.81073  0.40589  0.56502  Biso   1.000  O 
  Ca2770   1.0000 0.84422  0.40589  0.59719  Biso   1.000  Ca
  P1662    1.0000 0.95028  0.40589  0.57400  Biso   1.000  P 
  O7199    1.0000 0.92672  0.40589  0.57423  Biso   1.000  O 
  O7200    1.0000 0.95900  0.40589  0.59041  Biso   1.000  O 
  O7201    1.0000 0.75011  0.39938  0.55565  Biso   1.000  O 
  O7202    1.0000 0.75011  0.46187  0.55565  Biso   1.000  O 
  H553     1.0000 0.75011  0.37920  0.55565  Biso   1.000  H 
  H554     1.0000 0.75022  0.44169  0.55561  Biso   1.000  H 
  O7203    1.0000 0.86442  0.49085  0.64248  Biso   1.000  O 
  O7204    1.0000 0.96786  0.49085  0.64083  Biso   1.000  O 
  O7205    1.0000 0.79305  0.49085  0.65473  Biso   1.000  O 
  O7206    1.0000 0.76080  0.42835  0.63147  Biso   1.000  O 
  O7207    1.0000 0.90736  0.42835  0.63313  Biso   1.000  O 
  O7208    1.0000 0.83217  0.42835  0.61922  Biso   1.000  O 
  O7209    1.0000 0.76080  0.38342  0.63147  Biso   1.000  O 
  O7210    1.0000 0.90736  0.38342  0.63313  Biso   1.000  O 
  O7211    1.0000 0.83217  0.38342  0.61922  Biso   1.000  O 
  O7212    1.0000 0.86442  0.44593  0.64248  Biso   1.000  O 
  O7213    1.0000 0.96786  0.44593  0.64083  Biso   1.000  O 
  O7214    1.0000 0.79305  0.44593  0.65473  Biso   1.000  O 
  Ca2771   1.0000 0.79178  0.49945  0.60986  Biso   1.000  Ca
  Ca2772   1.0000 0.95844  0.43696  0.60987  Biso   1.000  Ca
  Ca2773   1.0000 0.95844  0.49982  0.60987  Biso   1.000  Ca
  Ca2774   1.0000 0.79178  0.43731  0.60986  Biso   1.000  Ca
  Ca2775   1.0000 0.84506  0.46838  0.62363  Biso   1.000  Ca
  P1663    1.0000 0.87136  0.46838  0.65147  Biso   1.000  P 
  O7215    1.0000 0.98484  0.46838  0.61269  Biso   1.000  O 
  O7216    1.0000 0.89463  0.46838  0.65400  Biso   1.000  O 
  Ca2776   1.0000 0.99929  0.46838  0.63765  Biso   1.000  Ca
  P1664    1.0000 0.95404  0.46838  0.64084  Biso   1.000  P 
  O7217    1.0000 0.94200  0.46838  0.62563  Biso   1.000  O 
  O7218    1.0000 0.93949  0.46838  0.65471  Biso   1.000  O 
  Ca2777   1.0000 0.90599  0.46838  0.62255  Biso   1.000  Ca
  P1665    1.0000 0.79995  0.46838  0.64573  Biso   1.000  P 
  O7219    1.0000 0.82350  0.46838  0.64551  Biso   1.000  O 
  O7220    1.0000 0.79122  0.46838  0.62933  Biso   1.000  O 
  Ca2778   1.0000 0.78018  0.40589  0.65033  Biso   1.000  Ca
  P1666    1.0000 0.75386  0.40589  0.62248  Biso   1.000  P 
  O7221    1.0000 0.89039  0.40589  0.66127  Biso   1.000  O 
  O7222    1.0000 0.98060  0.40589  0.61996  Biso   1.000  O 
  Ca2779   1.0000 0.87593  0.40589  0.63630  Biso   1.000  Ca
  P1667    1.0000 0.92119  0.40589  0.63312  Biso   1.000  P 
  O7223    1.0000 0.93322  0.40589  0.64833  Biso   1.000  O 
  O7224    1.0000 0.93573  0.40589  0.61924  Biso   1.000  O 
  Ca2780   1.0000 0.96922  0.40589  0.65141  Biso   1.000  Ca
  P1668    1.0000 0.82528  0.40589  0.62822  Biso   1.000  P 
  O7225    1.0000 0.80172  0.40589  0.62845  Biso   1.000  O 
  O7226    1.0000 0.83400  0.40589  0.64462  Biso   1.000  O 
  O7227    1.0000 0.87511  0.39938  0.60987  Biso   1.000  O 
  O7228    1.0000 0.87511  0.46187  0.60987  Biso   1.000  O 
  H555     1.0000 0.87511  0.37920  0.60987  Biso   1.000  H 
  H556     1.0000 0.87522  0.44169  0.60982  Biso   1.000  H 
  O7229    1.0000 0.98942  0.49085  0.69670  Biso   1.000  O 
  O7230    1.0000 0.84286  0.49085  0.69504  Biso   1.000  O 
  O7231    1.0000 0.91805  0.49085  0.70895  Biso   1.000  O 
  O7232    1.0000 0.88580  0.42835  0.68569  Biso   1.000  O 
  O7233    1.0000 0.78236  0.42835  0.68734  Biso   1.000  O 
  O7234    1.0000 0.95717  0.42835  0.67344  Biso   1.000  O 
  O7235    1.0000 0.88580  0.38342  0.68569  Biso   1.000  O 
  O7236    1.0000 0.78236  0.38342  0.68734  Biso   1.000  O 
  O7237    1.0000 0.95717  0.38342  0.67344  Biso   1.000  O 
  O7238    1.0000 0.98942  0.44593  0.69670  Biso   1.000  O 
  O7239    1.0000 0.84286  0.44593  0.69504  Biso   1.000  O 
  O7240    1.0000 0.91805  0.44593  0.70895  Biso   1.000  O 
  Ca2781   1.0000 0.91678  0.49945  0.66408  Biso   1.000  Ca
  Ca2782   1.0000 0.83344  0.43696  0.66409  Biso   1.000  Ca
  Ca2783   1.0000 0.83344  0.49982  0.66409  Biso   1.000  Ca
  Ca2784   1.0000 0.91678  0.43731  0.66408  Biso   1.000  Ca
  Ca2785   1.0000 0.97006  0.46838  0.67784  Biso   1.000  Ca
  P1669    1.0000 0.99636  0.46838  0.70569  Biso   1.000  P 
  O7241    1.0000 0.85984  0.46838  0.66691  Biso   1.000  O 
  O7242    1.0000 0.76963  0.46838  0.70822  Biso   1.000  O 
  Ca2786   1.0000 0.87429  0.46838  0.69187  Biso   1.000  Ca
  P1670    1.0000 0.82904  0.46838  0.69506  Biso   1.000  P 
  O7243    1.0000 0.81700  0.46838  0.67985  Biso   1.000  O 
  O7244    1.0000 0.81449  0.46838  0.70893  Biso   1.000  O 
  Ca2787   1.0000 0.78099  0.46838  0.67677  Biso   1.000  Ca
  P1671    1.0000 0.92495  0.46838  0.69995  Biso   1.000  P 
  O7245    1.0000 0.94850  0.46838  0.69973  Biso   1.000  O 
  O7246    1.0000 0.91622  0.46838  0.68355  Biso   1.000  O 
  Ca2788   1.0000 0.90518  0.40589  0.70455  Biso   1.000  Ca
  P1672    1.0000 0.87886  0.40589  0.67670  Biso   1.000  P 
  O7247    1.0000 0.76539  0.40589  0.71548  Biso   1.000  O 
  O7248    1.0000 0.85560  0.40589  0.67418  Biso   1.000  O 
  Ca2789   1.0000 0.75093  0.40589  0.69052  Biso   1.000  Ca
  P1673    1.0000 0.79619  0.40589  0.68733  Biso   1.000  P 
  O7249    1.0000 0.80822  0.40589  0.70255  Biso   1.000  O 
  O7250    1.0000 0.81073  0.40589  0.67346  Biso   1.000  O 
  Ca2790   1.0000 0.84422  0.40589  0.70563  Biso   1.000  Ca
  P1674    1.0000 0.95028  0.40589  0.68244  Biso   1.000  P 
  O7251    1.0000 0.92672  0.40589  0.68266  Biso   1.000  O 
  O7252    1.0000 0.95900  0.40589  0.69884  Biso   1.000  O 
  O7253    1.0000 0.75011  0.39938  0.66409  Biso   1.000  O 
  O7254    1.0000 0.75011  0.46187  0.66409  Biso   1.000  O 
  H557     1.0000 0.75011  0.37920  0.66409  Biso   1.000  H 
  H558     1.0000 0.75022  0.44169  0.66404  Biso   1.000  H 
  O7255    1.0000 0.86442  0.49085  0.75091  Biso   1.000  O 
  O7256    1.0000 0.96786  0.49085  0.74926  Biso   1.000  O 
  O7257    1.0000 0.79305  0.49085  0.76317  Biso   1.000  O 
  O7258    1.0000 0.76080  0.42835  0.73991  Biso   1.000  O 
  O7259    1.0000 0.90736  0.42835  0.74156  Biso   1.000  O 
  O7260    1.0000 0.83217  0.42835  0.72766  Biso   1.000  O 
  O7261    1.0000 0.76080  0.38342  0.73991  Biso   1.000  O 
  O7262    1.0000 0.90736  0.38342  0.74156  Biso   1.000  O 
  O7263    1.0000 0.83217  0.38342  0.72766  Biso   1.000  O 
  O7264    1.0000 0.86442  0.44593  0.75091  Biso   1.000  O 
  O7265    1.0000 0.96786  0.44593  0.74926  Biso   1.000  O 
  O7266    1.0000 0.79305  0.44593  0.76317  Biso   1.000  O 
  Ca2791   1.0000 0.79178  0.49945  0.71830  Biso   1.000  Ca
  Ca2792   1.0000 0.95844  0.43696  0.71831  Biso   1.000  Ca
  Ca2793   1.0000 0.95844  0.49982  0.71831  Biso   1.000  Ca
  Ca2794   1.0000 0.79178  0.43731  0.71830  Biso   1.000  Ca
  Ca2795   1.0000 0.84506  0.46838  0.73206  Biso   1.000  Ca
  P1675    1.0000 0.87136  0.46838  0.75990  Biso   1.000  P 
  O7267    1.0000 0.98484  0.46838  0.72113  Biso   1.000  O 
  O7268    1.0000 0.89463  0.46838  0.76243  Biso   1.000  O 
  Ca2796   1.0000 0.99929  0.46838  0.74609  Biso   1.000  Ca
  P1676    1.0000 0.95404  0.46838  0.74928  Biso   1.000  P 
  O7269    1.0000 0.94200  0.46838  0.73407  Biso   1.000  O 
  O7270    1.0000 0.93949  0.46838  0.76315  Biso   1.000  O 
  Ca2797   1.0000 0.90599  0.46838  0.73099  Biso   1.000  Ca
  P1677    1.0000 0.79995  0.46838  0.75417  Biso   1.000  P 
  O7271    1.0000 0.82350  0.46838  0.75394  Biso   1.000  O 
  O7272    1.0000 0.79122  0.46838  0.73776  Biso   1.000  O 
  Ca2798   1.0000 0.78018  0.40589  0.75877  Biso   1.000  Ca
  P1678    1.0000 0.75386  0.40589  0.73092  Biso   1.000  P 
  O7273    1.0000 0.89039  0.40589  0.76970  Biso   1.000  O 
  O7274    1.0000 0.98060  0.40589  0.72840  Biso   1.000  O 
  Ca2799   1.0000 0.87593  0.40589  0.74474  Biso   1.000  Ca
  P1679    1.0000 0.92119  0.40589  0.74155  Biso   1.000  P 
  O7275    1.0000 0.93322  0.40589  0.75677  Biso   1.000  O 
  O7276    1.0000 0.93573  0.40589  0.72767  Biso   1.000  O 
  Ca2800   1.0000 0.96922  0.40589  0.75984  Biso   1.000  Ca
  P1680    1.0000 0.82528  0.40589  0.73666  Biso   1.000  P 
  O7277    1.0000 0.80172  0.40589  0.73688  Biso   1.000  O 
  O7278    1.0000 0.83400  0.40589  0.75306  Biso   1.000  O 
  O7279    1.0000 0.87511  0.39938  0.71831  Biso   1.000  O 
  O7280    1.0000 0.87511  0.46187  0.71831  Biso   1.000  O 
  H559     1.0000 0.87511  0.37920  0.71831  Biso   1.000  H 
  H560     1.0000 0.87522  0.44169  0.71826  Biso   1.000  H 
  O7281    1.0000 0.98942  0.61585  0.26295  Biso   1.000  O 
  O7282    1.0000 0.84286  0.61585  0.26130  Biso   1.000  O 
  O7283    1.0000 0.91805  0.61585  0.27520  Biso   1.000  O 
  O7284    1.0000 0.88580  0.55335  0.25195  Biso   1.000  O 
  O7285    1.0000 0.78236  0.55335  0.25360  Biso   1.000  O 
  O7286    1.0000 0.95717  0.55335  0.23970  Biso   1.000  O 
  O7287    1.0000 0.88580  0.50842  0.25195  Biso   1.000  O 
  O7288    1.0000 0.78236  0.50842  0.25360  Biso   1.000  O 
  O7289    1.0000 0.95717  0.50842  0.23970  Biso   1.000  O 
  O7290    1.0000 0.98942  0.57093  0.26295  Biso   1.000  O 
  O7291    1.0000 0.84286  0.57093  0.26130  Biso   1.000  O 
  O7292    1.0000 0.91805  0.57093  0.27520  Biso   1.000  O 
  Ca2801   1.0000 0.91678  0.62445  0.23034  Biso   1.000  Ca
  Ca2802   1.0000 0.83344  0.56196  0.23035  Biso   1.000  Ca
  Ca2803   1.0000 0.83344  0.62482  0.23035  Biso   1.000  Ca
  Ca2804   1.0000 0.91678  0.56231  0.23034  Biso   1.000  Ca
  Ca2805   1.0000 0.97006  0.59338  0.24410  Biso   1.000  Ca
  P1681    1.0000 0.99636  0.59338  0.27194  Biso   1.000  P 
  O7293    1.0000 0.85984  0.59338  0.23317  Biso   1.000  O 
  O7294    1.0000 0.76963  0.59338  0.27447  Biso   1.000  O 
  Ca2806   1.0000 0.87429  0.59338  0.25813  Biso   1.000  Ca
  P1682    1.0000 0.82904  0.59338  0.26132  Biso   1.000  P 
  O7295    1.0000 0.81700  0.59338  0.24611  Biso   1.000  O 
  O7296    1.0000 0.81449  0.59338  0.27519  Biso   1.000  O 
  Ca2807   1.0000 0.78099  0.59338  0.24303  Biso   1.000  Ca
  P1683    1.0000 0.92495  0.59338  0.26620  Biso   1.000  P 
  O7297    1.0000 0.94850  0.59338  0.26598  Biso   1.000  O 
  O7298    1.0000 0.91622  0.59338  0.24980  Biso   1.000  O 
  Ca2808   1.0000 0.90518  0.53089  0.27081  Biso   1.000  Ca
  P1684    1.0000 0.87886  0.53089  0.24296  Biso   1.000  P 
  O7299    1.0000 0.76539  0.53089  0.28174  Biso   1.000  O 
  O7300    1.0000 0.85560  0.53089  0.24043  Biso   1.000  O 
  Ca2809   1.0000 0.75093  0.53089  0.25677  Biso   1.000  Ca
  P1685    1.0000 0.79619  0.53089  0.25359  Biso   1.000  P 
  O7301    1.0000 0.80822  0.53089  0.26880  Biso   1.000  O 
  O7302    1.0000 0.81073  0.53089  0.23971  Biso   1.000  O 
  Ca2810   1.0000 0.84422  0.53089  0.27188  Biso   1.000  Ca
  P1686    1.0000 0.95028  0.53089  0.24870  Biso   1.000  P 
  O7303    1.0000 0.92672  0.53089  0.24892  Biso   1.000  O 
  O7304    1.0000 0.95900  0.53089  0.26510  Biso   1.000  O 
  O7305    1.0000 0.75011  0.52438  0.23034  Biso   1.000  O 
  O7306    1.0000 0.75011  0.58687  0.23034  Biso   1.000  O 
  H561     1.0000 0.75011  0.50420  0.23034  Biso   1.000  H 
  H562     1.0000 0.75022  0.56669  0.23030  Biso   1.000  H 
  O7307    1.0000 0.86442  0.61585  0.31717  Biso   1.000  O 
  O7308    1.0000 0.96786  0.61585  0.31552  Biso   1.000  O 
  O7309    1.0000 0.79305  0.61585  0.32942  Biso   1.000  O 
  O7310    1.0000 0.76080  0.55335  0.30617  Biso   1.000  O 
  O7311    1.0000 0.90736  0.55335  0.30782  Biso   1.000  O 
  O7312    1.0000 0.83217  0.55335  0.29391  Biso   1.000  O 
  O7313    1.0000 0.76080  0.50842  0.30617  Biso   1.000  O 
  O7314    1.0000 0.90736  0.50842  0.30782  Biso   1.000  O 
  O7315    1.0000 0.83217  0.50842  0.29391  Biso   1.000  O 
  O7316    1.0000 0.86442  0.57093  0.31717  Biso   1.000  O 
  O7317    1.0000 0.96786  0.57093  0.31552  Biso   1.000  O 
  O7318    1.0000 0.79305  0.57093  0.32942  Biso   1.000  O 
  Ca2811   1.0000 0.79178  0.62445  0.28456  Biso   1.000  Ca
  Ca2812   1.0000 0.95844  0.56196  0.28456  Biso   1.000  Ca
  Ca2813   1.0000 0.95844  0.62482  0.28456  Biso   1.000  Ca
  Ca2814   1.0000 0.79178  0.56231  0.28456  Biso   1.000  Ca
  Ca2815   1.0000 0.84506  0.59338  0.29832  Biso   1.000  Ca
  P1687    1.0000 0.87136  0.59338  0.32616  Biso   1.000  P 
  O7319    1.0000 0.98484  0.59338  0.28738  Biso   1.000  O 
  O7320    1.0000 0.89463  0.59338  0.32869  Biso   1.000  O 
  Ca2816   1.0000 0.99929  0.59338  0.31234  Biso   1.000  Ca
  P1688    1.0000 0.95404  0.59338  0.31554  Biso   1.000  P 
  O7321    1.0000 0.94200  0.59338  0.30033  Biso   1.000  O 
  O7322    1.0000 0.93949  0.59338  0.32941  Biso   1.000  O 
  Ca2817   1.0000 0.90599  0.59338  0.29725  Biso   1.000  Ca
  P1689    1.0000 0.79995  0.59338  0.32042  Biso   1.000  P 
  O7323    1.0000 0.82350  0.59338  0.32020  Biso   1.000  O 
  O7324    1.0000 0.79122  0.59338  0.30402  Biso   1.000  O 
  Ca2818   1.0000 0.78018  0.53089  0.32502  Biso   1.000  Ca
  P1690    1.0000 0.75386  0.53089  0.29718  Biso   1.000  P 
  O7325    1.0000 0.89039  0.53089  0.33596  Biso   1.000  O 
  O7326    1.0000 0.98060  0.53089  0.29465  Biso   1.000  O 
  Ca2819   1.0000 0.87593  0.53089  0.31099  Biso   1.000  Ca
  P1691    1.0000 0.92119  0.53089  0.30781  Biso   1.000  P 
  O7327    1.0000 0.93322  0.53089  0.32302  Biso   1.000  O 
  O7328    1.0000 0.93573  0.53089  0.29393  Biso   1.000  O 
  Ca2820   1.0000 0.96922  0.53089  0.32610  Biso   1.000  Ca
  P1692    1.0000 0.82528  0.53089  0.30291  Biso   1.000  P 
  O7329    1.0000 0.80172  0.53089  0.30314  Biso   1.000  O 
  O7330    1.0000 0.83400  0.53089  0.31932  Biso   1.000  O 
  O7331    1.0000 0.87511  0.52438  0.28456  Biso   1.000  O 
  O7332    1.0000 0.87511  0.58687  0.28456  Biso   1.000  O 
  H563     1.0000 0.87511  0.50420  0.28456  Biso   1.000  H 
  H564     1.0000 0.87522  0.56669  0.28452  Biso   1.000  H 
  O7333    1.0000 0.98942  0.61585  0.37139  Biso   1.000  O 
  O7334    1.0000 0.84286  0.61585  0.36974  Biso   1.000  O 
  O7335    1.0000 0.91805  0.61585  0.38364  Biso   1.000  O 
  O7336    1.0000 0.88580  0.55335  0.36038  Biso   1.000  O 
  O7337    1.0000 0.78236  0.55335  0.36204  Biso   1.000  O 
  O7338    1.0000 0.95717  0.55335  0.34813  Biso   1.000  O 
  O7339    1.0000 0.88580  0.50842  0.36038  Biso   1.000  O 
  O7340    1.0000 0.78236  0.50842  0.36204  Biso   1.000  O 
  O7341    1.0000 0.95717  0.50842  0.34813  Biso   1.000  O 
  O7342    1.0000 0.98942  0.57093  0.37139  Biso   1.000  O 
  O7343    1.0000 0.84286  0.57093  0.36974  Biso   1.000  O 
  O7344    1.0000 0.91805  0.57093  0.38364  Biso   1.000  O 
  Ca2821   1.0000 0.91678  0.62445  0.33877  Biso   1.000  Ca
  Ca2822   1.0000 0.83344  0.56196  0.33878  Biso   1.000  Ca
  Ca2823   1.0000 0.83344  0.62482  0.33878  Biso   1.000  Ca
  Ca2824   1.0000 0.91678  0.56231  0.33877  Biso   1.000  Ca
  Ca2825   1.0000 0.97006  0.59338  0.35254  Biso   1.000  Ca
  P1693    1.0000 0.99636  0.59338  0.38038  Biso   1.000  P 
  O7345    1.0000 0.85984  0.59338  0.34160  Biso   1.000  O 
  O7346    1.0000 0.76963  0.59338  0.38291  Biso   1.000  O 
  Ca2826   1.0000 0.87429  0.59338  0.36656  Biso   1.000  Ca
  P1694    1.0000 0.82904  0.59338  0.36975  Biso   1.000  P 
  O7347    1.0000 0.81700  0.59338  0.35454  Biso   1.000  O 
  O7348    1.0000 0.81449  0.59338  0.38362  Biso   1.000  O 
  Ca2827   1.0000 0.78099  0.59338  0.35146  Biso   1.000  Ca
  P1695    1.0000 0.92495  0.59338  0.37464  Biso   1.000  P 
  O7349    1.0000 0.94850  0.59338  0.37442  Biso   1.000  O 
  O7350    1.0000 0.91622  0.59338  0.35824  Biso   1.000  O 
  Ca2828   1.0000 0.90518  0.53089  0.37924  Biso   1.000  Ca
  P1696    1.0000 0.87886  0.53089  0.35140  Biso   1.000  P 
  O7351    1.0000 0.76539  0.53089  0.39018  Biso   1.000  O 
  O7352    1.0000 0.85560  0.53089  0.34887  Biso   1.000  O 
  Ca2829   1.0000 0.75093  0.53089  0.36521  Biso   1.000  Ca
  P1697    1.0000 0.79619  0.53089  0.36203  Biso   1.000  P 
  O7353    1.0000 0.80822  0.53089  0.37724  Biso   1.000  O 
  O7354    1.0000 0.81073  0.53089  0.34815  Biso   1.000  O 
  Ca2830   1.0000 0.84422  0.53089  0.38032  Biso   1.000  Ca
  P1698    1.0000 0.95028  0.53089  0.35713  Biso   1.000  P 
  O7355    1.0000 0.92672  0.53089  0.35736  Biso   1.000  O 
  O7356    1.0000 0.95900  0.53089  0.37353  Biso   1.000  O 
  O7357    1.0000 0.75011  0.52438  0.33878  Biso   1.000  O 
  O7358    1.0000 0.75011  0.58687  0.33878  Biso   1.000  O 
  H565     1.0000 0.75011  0.50420  0.33878  Biso   1.000  H 
  H566     1.0000 0.75022  0.56669  0.33873  Biso   1.000  H 
  O7359    1.0000 0.86442  0.61585  0.42561  Biso   1.000  O 
  O7360    1.0000 0.96786  0.61585  0.42395  Biso   1.000  O 
  O7361    1.0000 0.79305  0.61585  0.43786  Biso   1.000  O 
  O7362    1.0000 0.76080  0.55335  0.41460  Biso   1.000  O 
  O7363    1.0000 0.90736  0.55335  0.41625  Biso   1.000  O 
  O7364    1.0000 0.83217  0.55335  0.40235  Biso   1.000  O 
  O7365    1.0000 0.76080  0.50842  0.41460  Biso   1.000  O 
  O7366    1.0000 0.90736  0.50842  0.41625  Biso   1.000  O 
  O7367    1.0000 0.83217  0.50842  0.40235  Biso   1.000  O 
  O7368    1.0000 0.86442  0.57093  0.42561  Biso   1.000  O 
  O7369    1.0000 0.96786  0.57093  0.42395  Biso   1.000  O 
  O7370    1.0000 0.79305  0.57093  0.43786  Biso   1.000  O 
  Ca2831   1.0000 0.79178  0.62445  0.39299  Biso   1.000  Ca
  Ca2832   1.0000 0.95844  0.56196  0.39300  Biso   1.000  Ca
  Ca2833   1.0000 0.95844  0.62482  0.39300  Biso   1.000  Ca
  Ca2834   1.0000 0.79178  0.56231  0.39299  Biso   1.000  Ca
  Ca2835   1.0000 0.84506  0.59338  0.40675  Biso   1.000  Ca
  P1699    1.0000 0.87136  0.59338  0.43460  Biso   1.000  P 
  O7371    1.0000 0.98484  0.59338  0.39582  Biso   1.000  O 
  O7372    1.0000 0.89463  0.59338  0.43713  Biso   1.000  O 
  Ca2836   1.0000 0.99929  0.59338  0.42078  Biso   1.000  Ca
  P1700    1.0000 0.95404  0.59338  0.42397  Biso   1.000  P 
  O7373    1.0000 0.94200  0.59338  0.40876  Biso   1.000  O 
  O7374    1.0000 0.93949  0.59338  0.43784  Biso   1.000  O 
  Ca2837   1.0000 0.90599  0.59338  0.40568  Biso   1.000  Ca
  P1701    1.0000 0.79995  0.59338  0.42886  Biso   1.000  P 
  O7375    1.0000 0.82350  0.59338  0.42864  Biso   1.000  O 
  O7376    1.0000 0.79122  0.59338  0.41246  Biso   1.000  O 
  Ca2838   1.0000 0.78018  0.53089  0.43346  Biso   1.000  Ca
  P1702    1.0000 0.75386  0.53089  0.40561  Biso   1.000  P 
  O7377    1.0000 0.89039  0.53089  0.44439  Biso   1.000  O 
  O7378    1.0000 0.98060  0.53089  0.40309  Biso   1.000  O 
  Ca2839   1.0000 0.87593  0.53089  0.41943  Biso   1.000  Ca
  P1703    1.0000 0.92119  0.53089  0.41624  Biso   1.000  P 
  O7379    1.0000 0.93322  0.53089  0.43146  Biso   1.000  O 
  O7380    1.0000 0.93573  0.53089  0.40237  Biso   1.000  O 
  Ca2840   1.0000 0.96922  0.53089  0.43454  Biso   1.000  Ca
  P1704    1.0000 0.82528  0.53089  0.41135  Biso   1.000  P 
  O7381    1.0000 0.80172  0.53089  0.41157  Biso   1.000  O 
  O7382    1.0000 0.83400  0.53089  0.42775  Biso   1.000  O 
  O7383    1.0000 0.87511  0.52438  0.39300  Biso   1.000  O 
  O7384    1.0000 0.87511  0.58687  0.39300  Biso   1.000  O 
  H567     1.0000 0.87511  0.50420  0.39300  Biso   1.000  H 
  H568     1.0000 0.87522  0.56669  0.39295  Biso   1.000  H 
  O7385    1.0000 0.98942  0.61585  0.47982  Biso   1.000  O 
  O7386    1.0000 0.84286  0.61585  0.47817  Biso   1.000  O 
  O7387    1.0000 0.91805  0.61585  0.49208  Biso   1.000  O 
  O7388    1.0000 0.88580  0.55335  0.46882  Biso   1.000  O 
  O7389    1.0000 0.78236  0.55335  0.47047  Biso   1.000  O 
  O7390    1.0000 0.95717  0.55335  0.45657  Biso   1.000  O 
  O7391    1.0000 0.88580  0.50842  0.46882  Biso   1.000  O 
  O7392    1.0000 0.78236  0.50842  0.47047  Biso   1.000  O 
  O7393    1.0000 0.95717  0.50842  0.45657  Biso   1.000  O 
  O7394    1.0000 0.98942  0.57093  0.47982  Biso   1.000  O 
  O7395    1.0000 0.84286  0.57093  0.47817  Biso   1.000  O 
  O7396    1.0000 0.91805  0.57093  0.49208  Biso   1.000  O 
  Ca2841   1.0000 0.91678  0.62445  0.44721  Biso   1.000  Ca
  Ca2842   1.0000 0.83344  0.56196  0.44722  Biso   1.000  Ca
  Ca2843   1.0000 0.83344  0.62482  0.44722  Biso   1.000  Ca
  Ca2844   1.0000 0.91678  0.56231  0.44721  Biso   1.000  Ca
  Ca2845   1.0000 0.97006  0.59338  0.46097  Biso   1.000  Ca
  P1705    1.0000 0.99636  0.59338  0.48881  Biso   1.000  P 
  O7397    1.0000 0.85984  0.59338  0.45004  Biso   1.000  O 
  O7398    1.0000 0.76963  0.59338  0.49134  Biso   1.000  O 
  Ca2846   1.0000 0.87429  0.59338  0.47500  Biso   1.000  Ca
  P1706    1.0000 0.82904  0.59338  0.47819  Biso   1.000  P 
  O7399    1.0000 0.81700  0.59338  0.46298  Biso   1.000  O 
  O7400    1.0000 0.81449  0.59338  0.49206  Biso   1.000  O 
  Ca2847   1.0000 0.78099  0.59338  0.45990  Biso   1.000  Ca
  P1707    1.0000 0.92495  0.59338  0.48308  Biso   1.000  P 
  O7401    1.0000 0.94850  0.59338  0.48285  Biso   1.000  O 
  O7402    1.0000 0.91622  0.59338  0.46667  Biso   1.000  O 
  Ca2848   1.0000 0.90518  0.53089  0.48768  Biso   1.000  Ca
  P1708    1.0000 0.87886  0.53089  0.45983  Biso   1.000  P 
  O7403    1.0000 0.76539  0.53089  0.49861  Biso   1.000  O 
  O7404    1.0000 0.85560  0.53089  0.45731  Biso   1.000  O 
  Ca2849   1.0000 0.75093  0.53089  0.47365  Biso   1.000  Ca
  P1709    1.0000 0.79619  0.53089  0.47046  Biso   1.000  P 
  O7405    1.0000 0.80822  0.53089  0.48568  Biso   1.000  O 
  O7406    1.0000 0.81073  0.53089  0.45658  Biso   1.000  O 
  Ca2850   1.0000 0.84422  0.53089  0.48875  Biso   1.000  Ca
  P1710    1.0000 0.95028  0.53089  0.46557  Biso   1.000  P 
  O7407    1.0000 0.92672  0.53089  0.46579  Biso   1.000  O 
  O7408    1.0000 0.95900  0.53089  0.48197  Biso   1.000  O 
  O7409    1.0000 0.75011  0.52438  0.44722  Biso   1.000  O 
  O7410    1.0000 0.75011  0.58687  0.44722  Biso   1.000  O 
  H569     1.0000 0.75011  0.50420  0.44722  Biso   1.000  H 
  H570     1.0000 0.75022  0.56669  0.44717  Biso   1.000  H 
  O7411    1.0000 0.86442  0.61585  0.53404  Biso   1.000  O 
  O7412    1.0000 0.96786  0.61585  0.53239  Biso   1.000  O 
  O7413    1.0000 0.79305  0.61585  0.54629  Biso   1.000  O 
  O7414    1.0000 0.76080  0.55335  0.52304  Biso   1.000  O 
  O7415    1.0000 0.90736  0.55335  0.52469  Biso   1.000  O 
  O7416    1.0000 0.83217  0.55335  0.51079  Biso   1.000  O 
  O7417    1.0000 0.76080  0.50842  0.52304  Biso   1.000  O 
  O7418    1.0000 0.90736  0.50842  0.52469  Biso   1.000  O 
  O7419    1.0000 0.83217  0.50842  0.51079  Biso   1.000  O 
  O7420    1.0000 0.86442  0.57093  0.53404  Biso   1.000  O 
  O7421    1.0000 0.96786  0.57093  0.53239  Biso   1.000  O 
  O7422    1.0000 0.79305  0.57093  0.54629  Biso   1.000  O 
  Ca2851   1.0000 0.79178  0.62445  0.50143  Biso   1.000  Ca
  Ca2852   1.0000 0.95844  0.56196  0.50144  Biso   1.000  Ca
  Ca2853   1.0000 0.95844  0.62482  0.50144  Biso   1.000  Ca
  Ca2854   1.0000 0.79178  0.56231  0.50143  Biso   1.000  Ca
  Ca2855   1.0000 0.84506  0.59338  0.51519  Biso   1.000  Ca
  P1711    1.0000 0.87136  0.59338  0.54303  Biso   1.000  P 
  O7423    1.0000 0.98484  0.59338  0.50426  Biso   1.000  O 
  O7424    1.0000 0.89463  0.59338  0.54556  Biso   1.000  O 
  Ca2856   1.0000 0.99929  0.59338  0.52922  Biso   1.000  Ca
  P1712    1.0000 0.95404  0.59338  0.53241  Biso   1.000  P 
  O7425    1.0000 0.94200  0.59338  0.51720  Biso   1.000  O 
  O7426    1.0000 0.93949  0.59338  0.54628  Biso   1.000  O 
  Ca2857   1.0000 0.90599  0.59338  0.51412  Biso   1.000  Ca
  P1713    1.0000 0.79995  0.59338  0.53729  Biso   1.000  P 
  O7427    1.0000 0.82350  0.59338  0.53707  Biso   1.000  O 
  O7428    1.0000 0.79122  0.59338  0.52089  Biso   1.000  O 
  Ca2858   1.0000 0.78018  0.53089  0.54190  Biso   1.000  Ca
  P1714    1.0000 0.75386  0.53089  0.51405  Biso   1.000  P 
  O7429    1.0000 0.89039  0.53089  0.55283  Biso   1.000  O 
  O7430    1.0000 0.98060  0.53089  0.51152  Biso   1.000  O 
  Ca2859   1.0000 0.87593  0.53089  0.52786  Biso   1.000  Ca
  P1715    1.0000 0.92119  0.53089  0.52468  Biso   1.000  P 
  O7431    1.0000 0.93322  0.53089  0.53989  Biso   1.000  O 
  O7432    1.0000 0.93573  0.53089  0.51080  Biso   1.000  O 
  Ca2860   1.0000 0.96922  0.53089  0.54297  Biso   1.000  Ca
  P1716    1.0000 0.82528  0.53089  0.51979  Biso   1.000  P 
  O7433    1.0000 0.80172  0.53089  0.52001  Biso   1.000  O 
  O7434    1.0000 0.83400  0.53089  0.53619  Biso   1.000  O 
  O7435    1.0000 0.87511  0.52438  0.50143  Biso   1.000  O 
  O7436    1.0000 0.87511  0.58687  0.50143  Biso   1.000  O 
  H571     1.0000 0.87511  0.50420  0.50143  Biso   1.000  H 
  H572     1.0000 0.87522  0.56669  0.50139  Biso   1.000  H 
  O7437    1.0000 0.98942  0.61585  0.58826  Biso   1.000  O 
  O7438    1.0000 0.84286  0.61585  0.58661  Biso   1.000  O 
  O7439    1.0000 0.91805  0.61585  0.60051  Biso   1.000  O 
  O7440    1.0000 0.88580  0.55335  0.57726  Biso   1.000  O 
  O7441    1.0000 0.78236  0.55335  0.57891  Biso   1.000  O 
  O7442    1.0000 0.95717  0.55335  0.56500  Biso   1.000  O 
  O7443    1.0000 0.88580  0.50842  0.57726  Biso   1.000  O 
  O7444    1.0000 0.78236  0.50842  0.57891  Biso   1.000  O 
  O7445    1.0000 0.95717  0.50842  0.56500  Biso   1.000  O 
  O7446    1.0000 0.98942  0.57093  0.58826  Biso   1.000  O 
  O7447    1.0000 0.84286  0.57093  0.58661  Biso   1.000  O 
  O7448    1.0000 0.91805  0.57093  0.60051  Biso   1.000  O 
  Ca2861   1.0000 0.91678  0.62445  0.55565  Biso   1.000  Ca
  Ca2862   1.0000 0.83344  0.56196  0.55565  Biso   1.000  Ca
  Ca2863   1.0000 0.83344  0.62482  0.55565  Biso   1.000  Ca
  Ca2864   1.0000 0.91678  0.56231  0.55565  Biso   1.000  Ca
  Ca2865   1.0000 0.97006  0.59338  0.56941  Biso   1.000  Ca
  P1717    1.0000 0.99636  0.59338  0.59725  Biso   1.000  P 
  O7449    1.0000 0.85984  0.59338  0.55847  Biso   1.000  O 
  O7450    1.0000 0.76963  0.59338  0.59978  Biso   1.000  O 
  Ca2866   1.0000 0.87429  0.59338  0.58343  Biso   1.000  Ca
  P1718    1.0000 0.82904  0.59338  0.58662  Biso   1.000  P 
  O7451    1.0000 0.81700  0.59338  0.57141  Biso   1.000  O 
  O7452    1.0000 0.81449  0.59338  0.60050  Biso   1.000  O 
  Ca2867   1.0000 0.78099  0.59338  0.56834  Biso   1.000  Ca
  P1719    1.0000 0.92495  0.59338  0.59151  Biso   1.000  P 
  O7453    1.0000 0.94850  0.59338  0.59129  Biso   1.000  O 
  O7454    1.0000 0.91622  0.59338  0.57511  Biso   1.000  O 
  Ca2868   1.0000 0.90518  0.53089  0.59611  Biso   1.000  Ca
  P1720    1.0000 0.87886  0.53089  0.56827  Biso   1.000  P 
  O7455    1.0000 0.76539  0.53089  0.60705  Biso   1.000  O 
  O7456    1.0000 0.85560  0.53089  0.56574  Biso   1.000  O 
  Ca2869   1.0000 0.75093  0.53089  0.58208  Biso   1.000  Ca
  P1721    1.0000 0.79619  0.53089  0.57890  Biso   1.000  P 
  O7457    1.0000 0.80822  0.53089  0.59411  Biso   1.000  O 
  O7458    1.0000 0.81073  0.53089  0.56502  Biso   1.000  O 
  Ca2870   1.0000 0.84422  0.53089  0.59719  Biso   1.000  Ca
  P1722    1.0000 0.95028  0.53089  0.57400  Biso   1.000  P 
  O7459    1.0000 0.92672  0.53089  0.57423  Biso   1.000  O 
  O7460    1.0000 0.95900  0.53089  0.59041  Biso   1.000  O 
  O7461    1.0000 0.75011  0.52438  0.55565  Biso   1.000  O 
  O7462    1.0000 0.75011  0.58687  0.55565  Biso   1.000  O 
  H573     1.0000 0.75011  0.50420  0.55565  Biso   1.000  H 
  H574     1.0000 0.75022  0.56669  0.55561  Biso   1.000  H 
  O7463    1.0000 0.86442  0.61585  0.64248  Biso   1.000  O 
  O7464    1.0000 0.96786  0.61585  0.64083  Biso   1.000  O 
  O7465    1.0000 0.79305  0.61585  0.65473  Biso   1.000  O 
  O7466    1.0000 0.76080  0.55335  0.63147  Biso   1.000  O 
  O7467    1.0000 0.90736  0.55335  0.63313  Biso   1.000  O 
  O7468    1.0000 0.83217  0.55335  0.61922  Biso   1.000  O 
  O7469    1.0000 0.76080  0.50842  0.63147  Biso   1.000  O 
  O7470    1.0000 0.90736  0.50842  0.63313  Biso   1.000  O 
  O7471    1.0000 0.83217  0.50842  0.61922  Biso   1.000  O 
  O7472    1.0000 0.86442  0.57093  0.64248  Biso   1.000  O 
  O7473    1.0000 0.96786  0.57093  0.64083  Biso   1.000  O 
  O7474    1.0000 0.79305  0.57093  0.65473  Biso   1.000  O 
  Ca2871   1.0000 0.79178  0.62445  0.60986  Biso   1.000  Ca
  Ca2872   1.0000 0.95844  0.56196  0.60987  Biso   1.000  Ca
  Ca2873   1.0000 0.95844  0.62482  0.60987  Biso   1.000  Ca
  Ca2874   1.0000 0.79178  0.56231  0.60986  Biso   1.000  Ca
  Ca2875   1.0000 0.84506  0.59338  0.62363  Biso   1.000  Ca
  P1723    1.0000 0.87136  0.59338  0.65147  Biso   1.000  P 
  O7475    1.0000 0.98484  0.59338  0.61269  Biso   1.000  O 
  O7476    1.0000 0.89463  0.59338  0.65400  Biso   1.000  O 
  Ca2876   1.0000 0.99929  0.59338  0.63765  Biso   1.000  Ca
  P1724    1.0000 0.95404  0.59338  0.64084  Biso   1.000  P 
  O7477    1.0000 0.94200  0.59338  0.62563  Biso   1.000  O 
  O7478    1.0000 0.93949  0.59338  0.65471  Biso   1.000  O 
  Ca2877   1.0000 0.90599  0.59338  0.62255  Biso   1.000  Ca
  P1725    1.0000 0.79995  0.59338  0.64573  Biso   1.000  P 
  O7479    1.0000 0.82350  0.59338  0.64551  Biso   1.000  O 
  O7480    1.0000 0.79122  0.59338  0.62933  Biso   1.000  O 
  Ca2878   1.0000 0.78018  0.53089  0.65033  Biso   1.000  Ca
  P1726    1.0000 0.75386  0.53089  0.62248  Biso   1.000  P 
  O7481    1.0000 0.89039  0.53089  0.66127  Biso   1.000  O 
  O7482    1.0000 0.98060  0.53089  0.61996  Biso   1.000  O 
  Ca2879   1.0000 0.87593  0.53089  0.63630  Biso   1.000  Ca
  P1727    1.0000 0.92119  0.53089  0.63312  Biso   1.000  P 
  O7483    1.0000 0.93322  0.53089  0.64833  Biso   1.000  O 
  O7484    1.0000 0.93573  0.53089  0.61924  Biso   1.000  O 
  Ca2880   1.0000 0.96922  0.53089  0.65141  Biso   1.000  Ca
  P1728    1.0000 0.82528  0.53089  0.62822  Biso   1.000  P 
  O7485    1.0000 0.80172  0.53089  0.62845  Biso   1.000  O 
  O7486    1.0000 0.83400  0.53089  0.64462  Biso   1.000  O 
  O7487    1.0000 0.87511  0.52438  0.60987  Biso   1.000  O 
  O7488    1.0000 0.87511  0.58687  0.60987  Biso   1.000  O 
  H575     1.0000 0.87511  0.50420  0.60987  Biso   1.000  H 
  H576     1.0000 0.87522  0.56669  0.60982  Biso   1.000  H 
  O7489    1.0000 0.98942  0.61585  0.69670  Biso   1.000  O 
  O7490    1.0000 0.84286  0.61585  0.69504  Biso   1.000  O 
  O7491    1.0000 0.91805  0.61585  0.70895  Biso   1.000  O 
  O7492    1.0000 0.88580  0.55335  0.68569  Biso   1.000  O 
  O7493    1.0000 0.78236  0.55335  0.68734  Biso   1.000  O 
  O7494    1.0000 0.95717  0.55335  0.67344  Biso   1.000  O 
  O7495    1.0000 0.88580  0.50842  0.68569  Biso   1.000  O 
  O7496    1.0000 0.78236  0.50842  0.68734  Biso   1.000  O 
  O7497    1.0000 0.95717  0.50842  0.67344  Biso   1.000  O 
  O7498    1.0000 0.98942  0.57093  0.69670  Biso   1.000  O 
  O7499    1.0000 0.84286  0.57093  0.69504  Biso   1.000  O 
  O7500    1.0000 0.91805  0.57093  0.70895  Biso   1.000  O 
  Ca2881   1.0000 0.91678  0.62445  0.66408  Biso   1.000  Ca
  Ca2882   1.0000 0.83344  0.56196  0.66409  Biso   1.000  Ca
  Ca2883   1.0000 0.83344  0.62482  0.66409  Biso   1.000  Ca
  Ca2884   1.0000 0.91678  0.56231  0.66408  Biso   1.000  Ca
  Ca2885   1.0000 0.97006  0.59338  0.67784  Biso   1.000  Ca
  P1729    1.0000 0.99636  0.59338  0.70569  Biso   1.000  P 
  O7501    1.0000 0.85984  0.59338  0.66691  Biso   1.000  O 
  O7502    1.0000 0.76963  0.59338  0.70822  Biso   1.000  O 
  Ca2886   1.0000 0.87429  0.59338  0.69187  Biso   1.000  Ca
  P1730    1.0000 0.82904  0.59338  0.69506  Biso   1.000  P 
  O7503    1.0000 0.81700  0.59338  0.67985  Biso   1.000  O 
  O7504    1.0000 0.81449  0.59338  0.70893  Biso   1.000  O 
  Ca2887   1.0000 0.78099  0.59338  0.67677  Biso   1.000  Ca
  P1731    1.0000 0.92495  0.59338  0.69995  Biso   1.000  P 
  O7505    1.0000 0.94850  0.59338  0.69973  Biso   1.000  O 
  O7506    1.0000 0.91622  0.59338  0.68355  Biso   1.000  O 
  Ca2888   1.0000 0.90518  0.53089  0.70455  Biso   1.000  Ca
  P1732    1.0000 0.87886  0.53089  0.67670  Biso   1.000  P 
  O7507    1.0000 0.76539  0.53089  0.71548  Biso   1.000  O 
  O7508    1.0000 0.85560  0.53089  0.67418  Biso   1.000  O 
  Ca2889   1.0000 0.75093  0.53089  0.69052  Biso   1.000  Ca
  P1733    1.0000 0.79619  0.53089  0.68733  Biso   1.000  P 
  O7509    1.0000 0.80822  0.53089  0.70255  Biso   1.000  O 
  O7510    1.0000 0.81073  0.53089  0.67346  Biso   1.000  O 
  Ca2890   1.0000 0.84422  0.53089  0.70563  Biso   1.000  Ca
  P1734    1.0000 0.95028  0.53089  0.68244  Biso   1.000  P 
  O7511    1.0000 0.92672  0.53089  0.68266  Biso   1.000  O 
  O7512    1.0000 0.95900  0.53089  0.69884  Biso   1.000  O 
  O7513    1.0000 0.75011  0.52438  0.66409  Biso   1.000  O 
  O7514    1.0000 0.75011  0.58687  0.66409  Biso   1.000  O 
  H577     1.0000 0.75011  0.50420  0.66409  Biso   1.000  H 
  H578     1.0000 0.75022  0.56669  0.66404  Biso   1.000  H 
  O7515    1.0000 0.86442  0.61585  0.75091  Biso   1.000  O 
  O7516    1.0000 0.96786  0.61585  0.74926  Biso   1.000  O 
  O7517    1.0000 0.79305  0.61585  0.76317  Biso   1.000  O 
  O7518    1.0000 0.76080  0.55335  0.73991  Biso   1.000  O 
  O7519    1.0000 0.90736  0.55335  0.74156  Biso   1.000  O 
  O7520    1.0000 0.83217  0.55335  0.72766  Biso   1.000  O 
  O7521    1.0000 0.76080  0.50842  0.73991  Biso   1.000  O 
  O7522    1.0000 0.90736  0.50842  0.74156  Biso   1.000  O 
  O7523    1.0000 0.83217  0.50842  0.72766  Biso   1.000  O 
  O7524    1.0000 0.86442  0.57093  0.75091  Biso   1.000  O 
  O7525    1.0000 0.96786  0.57093  0.74926  Biso   1.000  O 
  O7526    1.0000 0.79305  0.57093  0.76317  Biso   1.000  O 
  Ca2891   1.0000 0.79178  0.62445  0.71830  Biso   1.000  Ca
  Ca2892   1.0000 0.95844  0.56196  0.71831  Biso   1.000  Ca
  Ca2893   1.0000 0.95844  0.62482  0.71831  Biso   1.000  Ca
  Ca2894   1.0000 0.79178  0.56231  0.71830  Biso   1.000  Ca
  Ca2895   1.0000 0.84506  0.59338  0.73206  Biso   1.000  Ca
  P1735    1.0000 0.87136  0.59338  0.75990  Biso   1.000  P 
  O7527    1.0000 0.98484  0.59338  0.72113  Biso   1.000  O 
  O7528    1.0000 0.89463  0.59338  0.76243  Biso   1.000  O 
  Ca2896   1.0000 0.99929  0.59338  0.74609  Biso   1.000  Ca
  P1736    1.0000 0.95404  0.59338  0.74928  Biso   1.000  P 
  O7529    1.0000 0.94200  0.59338  0.73407  Biso   1.000  O 
  O7530    1.0000 0.93949  0.59338  0.76315  Biso   1.000  O 
  Ca2897   1.0000 0.90599  0.59338  0.73099  Biso   1.000  Ca
  P1737    1.0000 0.79995  0.59338  0.75417  Biso   1.000  P 
  O7531    1.0000 0.82350  0.59338  0.75394  Biso   1.000  O 
  O7532    1.0000 0.79122  0.59338  0.73776  Biso   1.000  O 
  Ca2898   1.0000 0.78018  0.53089  0.75877  Biso   1.000  Ca
  P1738    1.0000 0.75386  0.53089  0.73092  Biso   1.000  P 
  O7533    1.0000 0.89039  0.53089  0.76970  Biso   1.000  O 
  O7534    1.0000 0.98060  0.53089  0.72840  Biso   1.000  O 
  Ca2899   1.0000 0.87593  0.53089  0.74474  Biso   1.000  Ca
  P1739    1.0000 0.92119  0.53089  0.74155  Biso   1.000  P 
  O7535    1.0000 0.93322  0.53089  0.75677  Biso   1.000  O 
  O7536    1.0000 0.93573  0.53089  0.72767  Biso   1.000  O 
  Ca2900   1.0000 0.96922  0.53089  0.75984  Biso   1.000  Ca
  P1740    1.0000 0.82528  0.53089  0.73666  Biso   1.000  P 
  O7537    1.0000 0.80172  0.53089  0.73688  Biso   1.000  O 
  O7538    1.0000 0.83400  0.53089  0.75306  Biso   1.000  O 
  O7539    1.0000 0.87511  0.52438  0.71831  Biso   1.000  O 
  O7540    1.0000 0.87511  0.58687  0.71831  Biso   1.000  O 
  H579     1.0000 0.87511  0.50420  0.71831  Biso   1.000  H 
  H580     1.0000 0.87522  0.56669  0.71826  Biso   1.000  H 
  O7541    1.0000 0.98942  0.74085  0.26295  Biso   1.000  O 
  O7542    1.0000 0.84286  0.74085  0.26130  Biso   1.000  O 
  O7543    1.0000 0.91805  0.74085  0.27520  Biso   1.000  O 
  O7544    1.0000 0.88580  0.67835  0.25195  Biso   1.000  O 
  O7545    1.0000 0.78236  0.67835  0.25360  Biso   1.000  O 
  O7546    1.0000 0.95717  0.67835  0.23970  Biso   1.000  O 
  O7547    1.0000 0.88580  0.63342  0.25195  Biso   1.000  O 
  O7548    1.0000 0.78236  0.63342  0.25360  Biso   1.000  O 
  O7549    1.0000 0.95717  0.63342  0.23970  Biso   1.000  O 
  O7550    1.0000 0.98942  0.69593  0.26295  Biso   1.000  O 
  O7551    1.0000 0.84286  0.69593  0.26130  Biso   1.000  O 
  O7552    1.0000 0.91805  0.69593  0.27520  Biso   1.000  O 
  Ca2901   1.0000 0.91678  0.74945  0.23034  Biso   1.000  Ca
  Ca2902   1.0000 0.83344  0.68696  0.23035  Biso   1.000  Ca
  Ca2903   1.0000 0.83344  0.74982  0.23035  Biso   1.000  Ca
  Ca2904   1.0000 0.91678  0.68731  0.23034  Biso   1.000  Ca
  Ca2905   1.0000 0.97006  0.71838  0.24410  Biso   1.000  Ca
  P1741    1.0000 0.99636  0.71838  0.27194  Biso   1.000  P 
  O7553    1.0000 0.85984  0.71838  0.23317  Biso   1.000  O 
  O7554    1.0000 0.76963  0.71838  0.27447  Biso   1.000  O 
  Ca2906   1.0000 0.87429  0.71838  0.25813  Biso   1.000  Ca
  P1742    1.0000 0.82904  0.71838  0.26132  Biso   1.000  P 
  O7555    1.0000 0.81700  0.71838  0.24611  Biso   1.000  O 
  O7556    1.0000 0.81449  0.71838  0.27519  Biso   1.000  O 
  Ca2907   1.0000 0.78099  0.71838  0.24303  Biso   1.000  Ca
  P1743    1.0000 0.92495  0.71838  0.26620  Biso   1.000  P 
  O7557    1.0000 0.94850  0.71838  0.26598  Biso   1.000  O 
  O7558    1.0000 0.91622  0.71838  0.24980  Biso   1.000  O 
  Ca2908   1.0000 0.90518  0.65589  0.27081  Biso   1.000  Ca
  P1744    1.0000 0.87886  0.65589  0.24296  Biso   1.000  P 
  O7559    1.0000 0.76539  0.65589  0.28174  Biso   1.000  O 
  O7560    1.0000 0.85560  0.65589  0.24043  Biso   1.000  O 
  Ca2909   1.0000 0.75093  0.65589  0.25677  Biso   1.000  Ca
  P1745    1.0000 0.79619  0.65589  0.25359  Biso   1.000  P 
  O7561    1.0000 0.80822  0.65589  0.26880  Biso   1.000  O 
  O7562    1.0000 0.81073  0.65589  0.23971  Biso   1.000  O 
  Ca2910   1.0000 0.84422  0.65589  0.27188  Biso   1.000  Ca
  P1746    1.0000 0.95028  0.65589  0.24870  Biso   1.000  P 
  O7563    1.0000 0.92672  0.65589  0.24892  Biso   1.000  O 
  O7564    1.0000 0.95900  0.65589  0.26510  Biso   1.000  O 
  O7565    1.0000 0.75011  0.64938  0.23034  Biso   1.000  O 
  O7566    1.0000 0.75011  0.71187  0.23034  Biso   1.000  O 
  H581     1.0000 0.75011  0.62920  0.23034  Biso   1.000  H 
  H582     1.0000 0.75022  0.69169  0.23030  Biso   1.000  H 
  O7567    1.0000 0.86442  0.74085  0.31717  Biso   1.000  O 
  O7568    1.0000 0.96786  0.74085  0.31552  Biso   1.000  O 
  O7569    1.0000 0.79305  0.74085  0.32942  Biso   1.000  O 
  O7570    1.0000 0.76080  0.67835  0.30617  Biso   1.000  O 
  O7571    1.0000 0.90736  0.67835  0.30782  Biso   1.000  O 
  O7572    1.0000 0.83217  0.67835  0.29391  Biso   1.000  O 
  O7573    1.0000 0.76080  0.63342  0.30617  Biso   1.000  O 
  O7574    1.0000 0.90736  0.63342  0.30782  Biso   1.000  O 
  O7575    1.0000 0.83217  0.63342  0.29391  Biso   1.000  O 
  O7576    1.0000 0.86442  0.69593  0.31717  Biso   1.000  O 
  O7577    1.0000 0.96786  0.69593  0.31552  Biso   1.000  O 
  O7578    1.0000 0.79305  0.69593  0.32942  Biso   1.000  O 
  Ca2911   1.0000 0.79178  0.74945  0.28456  Biso   1.000  Ca
  Ca2912   1.0000 0.95844  0.68696  0.28456  Biso   1.000  Ca
  Ca2913   1.0000 0.95844  0.74982  0.28456  Biso   1.000  Ca
  Ca2914   1.0000 0.79178  0.68731  0.28456  Biso   1.000  Ca
  Ca2915   1.0000 0.84506  0.71838  0.29832  Biso   1.000  Ca
  P1747    1.0000 0.87136  0.71838  0.32616  Biso   1.000  P 
  O7579    1.0000 0.98484  0.71838  0.28738  Biso   1.000  O 
  O7580    1.0000 0.89463  0.71838  0.32869  Biso   1.000  O 
  Ca2916   1.0000 0.99929  0.71838  0.31234  Biso   1.000  Ca
  P1748    1.0000 0.95404  0.71838  0.31554  Biso   1.000  P 
  O7581    1.0000 0.94200  0.71838  0.30033  Biso   1.000  O 
  O7582    1.0000 0.93949  0.71838  0.32941  Biso   1.000  O 
  Ca2917   1.0000 0.90599  0.71838  0.29725  Biso   1.000  Ca
  P1749    1.0000 0.79995  0.71838  0.32042  Biso   1.000  P 
  O7583    1.0000 0.82350  0.71838  0.32020  Biso   1.000  O 
  O7584    1.0000 0.79122  0.71838  0.30402  Biso   1.000  O 
  Ca2918   1.0000 0.78018  0.65589  0.32502  Biso   1.000  Ca
  P1750    1.0000 0.75386  0.65589  0.29718  Biso   1.000  P 
  O7585    1.0000 0.89039  0.65589  0.33596  Biso   1.000  O 
  O7586    1.0000 0.98060  0.65589  0.29465  Biso   1.000  O 
  Ca2919   1.0000 0.87593  0.65589  0.31099  Biso   1.000  Ca
  P1751    1.0000 0.92119  0.65589  0.30781  Biso   1.000  P 
  O7587    1.0000 0.93322  0.65589  0.32302  Biso   1.000  O 
  O7588    1.0000 0.93573  0.65589  0.29393  Biso   1.000  O 
  Ca2920   1.0000 0.96922  0.65589  0.32610  Biso   1.000  Ca
  P1752    1.0000 0.82528  0.65589  0.30291  Biso   1.000  P 
  O7589    1.0000 0.80172  0.65589  0.30314  Biso   1.000  O 
  O7590    1.0000 0.83400  0.65589  0.31932  Biso   1.000  O 
  O7591    1.0000 0.87511  0.64938  0.28456  Biso   1.000  O 
  O7592    1.0000 0.87511  0.71187  0.28456  Biso   1.000  O 
  H583     1.0000 0.87511  0.62920  0.28456  Biso   1.000  H 
  H584     1.0000 0.87522  0.69169  0.28452  Biso   1.000  H 
  O7593    1.0000 0.98942  0.74085  0.37139  Biso   1.000  O 
  O7594    1.0000 0.84286  0.74085  0.36974  Biso   1.000  O 
  O7595    1.0000 0.91805  0.74085  0.38364  Biso   1.000  O 
  O7596    1.0000 0.88580  0.67835  0.36038  Biso   1.000  O 
  O7597    1.0000 0.78236  0.67835  0.36204  Biso   1.000  O 
  O7598    1.0000 0.95717  0.67835  0.34813  Biso   1.000  O 
  O7599    1.0000 0.88580  0.63342  0.36038  Biso   1.000  O 
  O7600    1.0000 0.78236  0.63342  0.36204  Biso   1.000  O 
  O7601    1.0000 0.95717  0.63342  0.34813  Biso   1.000  O 
  O7602    1.0000 0.98942  0.69593  0.37139  Biso   1.000  O 
  O7603    1.0000 0.84286  0.69593  0.36974  Biso   1.000  O 
  O7604    1.0000 0.91805  0.69593  0.38364  Biso   1.000  O 
  Ca2921   1.0000 0.91678  0.74945  0.33877  Biso   1.000  Ca
  Ca2922   1.0000 0.83344  0.68696  0.33878  Biso   1.000  Ca
  Ca2923   1.0000 0.83344  0.74982  0.33878  Biso   1.000  Ca
  Ca2924   1.0000 0.91678  0.68731  0.33877  Biso   1.000  Ca
  Ca2925   1.0000 0.97006  0.71838  0.35254  Biso   1.000  Ca
  P1753    1.0000 0.99636  0.71838  0.38038  Biso   1.000  P 
  O7605    1.0000 0.85984  0.71838  0.34160  Biso   1.000  O 
  O7606    1.0000 0.76963  0.71838  0.38291  Biso   1.000  O 
  Ca2926   1.0000 0.87429  0.71838  0.36656  Biso   1.000  Ca
  P1754    1.0000 0.82904  0.71838  0.36975  Biso   1.000  P 
  O7607    1.0000 0.81700  0.71838  0.35454  Biso   1.000  O 
  O7608    1.0000 0.81449  0.71838  0.38362  Biso   1.000  O 
  Ca2927   1.0000 0.78099  0.71838  0.35146  Biso   1.000  Ca
  P1755    1.0000 0.92495  0.71838  0.37464  Biso   1.000  P 
  O7609    1.0000 0.94850  0.71838  0.37442  Biso   1.000  O 
  O7610    1.0000 0.91622  0.71838  0.35824  Biso   1.000  O 
  Ca2928   1.0000 0.90518  0.65589  0.37924  Biso   1.000  Ca
  P1756    1.0000 0.87886  0.65589  0.35140  Biso   1.000  P 
  O7611    1.0000 0.76539  0.65589  0.39018  Biso   1.000  O 
  O7612    1.0000 0.85560  0.65589  0.34887  Biso   1.000  O 
  Ca2929   1.0000 0.75093  0.65589  0.36521  Biso   1.000  Ca
  P1757    1.0000 0.79619  0.65589  0.36203  Biso   1.000  P 
  O7613    1.0000 0.80822  0.65589  0.37724  Biso   1.000  O 
  O7614    1.0000 0.81073  0.65589  0.34815  Biso   1.000  O 
  Ca2930   1.0000 0.84422  0.65589  0.38032  Biso   1.000  Ca
  P1758    1.0000 0.95028  0.65589  0.35713  Biso   1.000  P 
  O7615    1.0000 0.92672  0.65589  0.35736  Biso   1.000  O 
  O7616    1.0000 0.95900  0.65589  0.37353  Biso   1.000  O 
  O7617    1.0000 0.75011  0.64938  0.33878  Biso   1.000  O 
  O7618    1.0000 0.75011  0.71187  0.33878  Biso   1.000  O 
  H585     1.0000 0.75011  0.62920  0.33878  Biso   1.000  H 
  H586     1.0000 0.75022  0.69169  0.33873  Biso   1.000  H 
  O7619    1.0000 0.86442  0.74085  0.42561  Biso   1.000  O 
  O7620    1.0000 0.96786  0.74085  0.42395  Biso   1.000  O 
  O7621    1.0000 0.79305  0.74085  0.43786  Biso   1.000  O 
  O7622    1.0000 0.76080  0.67835  0.41460  Biso   1.000  O 
  O7623    1.0000 0.90736  0.67835  0.41625  Biso   1.000  O 
  O7624    1.0000 0.83217  0.67835  0.40235  Biso   1.000  O 
  O7625    1.0000 0.76080  0.63342  0.41460  Biso   1.000  O 
  O7626    1.0000 0.90736  0.63342  0.41625  Biso   1.000  O 
  O7627    1.0000 0.83217  0.63342  0.40235  Biso   1.000  O 
  O7628    1.0000 0.86442  0.69593  0.42561  Biso   1.000  O 
  O7629    1.0000 0.96786  0.69593  0.42395  Biso   1.000  O 
  O7630    1.0000 0.79305  0.69593  0.43786  Biso   1.000  O 
  Ca2931   1.0000 0.79178  0.74945  0.39299  Biso   1.000  Ca
  Ca2932   1.0000 0.95844  0.68696  0.39300  Biso   1.000  Ca
  Ca2933   1.0000 0.95844  0.74982  0.39300  Biso   1.000  Ca
  Ca2934   1.0000 0.79178  0.68731  0.39299  Biso   1.000  Ca
  Ca2935   1.0000 0.84506  0.71838  0.40675  Biso   1.000  Ca
  P1759    1.0000 0.87136  0.71838  0.43460  Biso   1.000  P 
  O7631    1.0000 0.98484  0.71838  0.39582  Biso   1.000  O 
  O7632    1.0000 0.89463  0.71838  0.43713  Biso   1.000  O 
  Ca2936   1.0000 0.99929  0.71838  0.42078  Biso   1.000  Ca
  P1760    1.0000 0.95404  0.71838  0.42397  Biso   1.000  P 
  O7633    1.0000 0.94200  0.71838  0.40876  Biso   1.000  O 
  O7634    1.0000 0.93949  0.71838  0.43784  Biso   1.000  O 
  Ca2937   1.0000 0.90599  0.71838  0.40568  Biso   1.000  Ca
  P1761    1.0000 0.79995  0.71838  0.42886  Biso   1.000  P 
  O7635    1.0000 0.82350  0.71838  0.42864  Biso   1.000  O 
  O7636    1.0000 0.79122  0.71838  0.41246  Biso   1.000  O 
  Ca2938   1.0000 0.78018  0.65589  0.43346  Biso   1.000  Ca
  P1762    1.0000 0.75386  0.65589  0.40561  Biso   1.000  P 
  O7637    1.0000 0.89039  0.65589  0.44439  Biso   1.000  O 
  O7638    1.0000 0.98060  0.65589  0.40309  Biso   1.000  O 
  Ca2939   1.0000 0.87593  0.65589  0.41943  Biso   1.000  Ca
  P1763    1.0000 0.92119  0.65589  0.41624  Biso   1.000  P 
  O7639    1.0000 0.93322  0.65589  0.43146  Biso   1.000  O 
  O7640    1.0000 0.93573  0.65589  0.40237  Biso   1.000  O 
  Ca2940   1.0000 0.96922  0.65589  0.43454  Biso   1.000  Ca
  P1764    1.0000 0.82528  0.65589  0.41135  Biso   1.000  P 
  O7641    1.0000 0.80172  0.65589  0.41157  Biso   1.000  O 
  O7642    1.0000 0.83400  0.65589  0.42775  Biso   1.000  O 
  O7643    1.0000 0.87511  0.64938  0.39300  Biso   1.000  O 
  O7644    1.0000 0.87511  0.71187  0.39300  Biso   1.000  O 
  H587     1.0000 0.87511  0.62920  0.39300  Biso   1.000  H 
  H588     1.0000 0.87522  0.69169  0.39295  Biso   1.000  H 
  O7645    1.0000 0.98942  0.74085  0.47982  Biso   1.000  O 
  O7646    1.0000 0.84286  0.74085  0.47817  Biso   1.000  O 
  O7647    1.0000 0.91805  0.74085  0.49208  Biso   1.000  O 
  O7648    1.0000 0.88580  0.67835  0.46882  Biso   1.000  O 
  O7649    1.0000 0.78236  0.67835  0.47047  Biso   1.000  O 
  O7650    1.0000 0.95717  0.67835  0.45657  Biso   1.000  O 
  O7651    1.0000 0.88580  0.63342  0.46882  Biso   1.000  O 
  O7652    1.0000 0.78236  0.63342  0.47047  Biso   1.000  O 
  O7653    1.0000 0.95717  0.63342  0.45657  Biso   1.000  O 
  O7654    1.0000 0.98942  0.69593  0.47982  Biso   1.000  O 
  O7655    1.0000 0.84286  0.69593  0.47817  Biso   1.000  O 
  O7656    1.0000 0.91805  0.69593  0.49208  Biso   1.000  O 
  Ca2941   1.0000 0.91678  0.74945  0.44721  Biso   1.000  Ca
  Ca2942   1.0000 0.83344  0.68696  0.44722  Biso   1.000  Ca
  Ca2943   1.0000 0.83344  0.74982  0.44722  Biso   1.000  Ca
  Ca2944   1.0000 0.91678  0.68731  0.44721  Biso   1.000  Ca
  Ca2945   1.0000 0.97006  0.71838  0.46097  Biso   1.000  Ca
  P1765    1.0000 0.99636  0.71838  0.48881  Biso   1.000  P 
  O7657    1.0000 0.85984  0.71838  0.45004  Biso   1.000  O 
  O7658    1.0000 0.76963  0.71838  0.49134  Biso   1.000  O 
  Ca2946   1.0000 0.87429  0.71838  0.47500  Biso   1.000  Ca
  P1766    1.0000 0.82904  0.71838  0.47819  Biso   1.000  P 
  O7659    1.0000 0.81700  0.71838  0.46298  Biso   1.000  O 
  O7660    1.0000 0.81449  0.71838  0.49206  Biso   1.000  O 
  Ca2947   1.0000 0.78099  0.71838  0.45990  Biso   1.000  Ca
  P1767    1.0000 0.92495  0.71838  0.48308  Biso   1.000  P 
  O7661    1.0000 0.94850  0.71838  0.48285  Biso   1.000  O 
  O7662    1.0000 0.91622  0.71838  0.46667  Biso   1.000  O 
  Ca2948   1.0000 0.90518  0.65589  0.48768  Biso   1.000  Ca
  P1768    1.0000 0.87886  0.65589  0.45983  Biso   1.000  P 
  O7663    1.0000 0.76539  0.65589  0.49861  Biso   1.000  O 
  O7664    1.0000 0.85560  0.65589  0.45731  Biso   1.000  O 
  Ca2949   1.0000 0.75093  0.65589  0.47365  Biso   1.000  Ca
  P1769    1.0000 0.79619  0.65589  0.47046  Biso   1.000  P 
  O7665    1.0000 0.80822  0.65589  0.48568  Biso   1.000  O 
  O7666    1.0000 0.81073  0.65589  0.45658  Biso   1.000  O 
  Ca2950   1.0000 0.84422  0.65589  0.48875  Biso   1.000  Ca
  P1770    1.0000 0.95028  0.65589  0.46557  Biso   1.000  P 
  O7667    1.0000 0.92672  0.65589  0.46579  Biso   1.000  O 
  O7668    1.0000 0.95900  0.65589  0.48197  Biso   1.000  O 
  O7669    1.0000 0.75011  0.64938  0.44722  Biso   1.000  O 
  O7670    1.0000 0.75011  0.71187  0.44722  Biso   1.000  O 
  H589     1.0000 0.75011  0.62920  0.44722  Biso   1.000  H 
  H590     1.0000 0.75022  0.69169  0.44717  Biso   1.000  H 
  O7671    1.0000 0.86442  0.74085  0.53404  Biso   1.000  O 
  O7672    1.0000 0.96786  0.74085  0.53239  Biso   1.000  O 
  O7673    1.0000 0.79305  0.74085  0.54629  Biso   1.000  O 
  O7674    1.0000 0.76080  0.67835  0.52304  Biso   1.000  O 
  O7675    1.0000 0.90736  0.67835  0.52469  Biso   1.000  O 
  O7676    1.0000 0.83217  0.67835  0.51079  Biso   1.000  O 
  O7677    1.0000 0.76080  0.63342  0.52304  Biso   1.000  O 
  O7678    1.0000 0.90736  0.63342  0.52469  Biso   1.000  O 
  O7679    1.0000 0.83217  0.63342  0.51079  Biso   1.000  O 
  O7680    1.0000 0.86442  0.69593  0.53404  Biso   1.000  O 
  O7681    1.0000 0.96786  0.69593  0.53239  Biso   1.000  O 
  O7682    1.0000 0.79305  0.69593  0.54629  Biso   1.000  O 
  Ca2951   1.0000 0.79178  0.74945  0.50143  Biso   1.000  Ca
  Ca2952   1.0000 0.95844  0.68696  0.50144  Biso   1.000  Ca
  Ca2953   1.0000 0.95844  0.74982  0.50144  Biso   1.000  Ca
  Ca2954   1.0000 0.79178  0.68731  0.50143  Biso   1.000  Ca
  Ca2955   1.0000 0.84506  0.71838  0.51519  Biso   1.000  Ca
  P1771    1.0000 0.87136  0.71838  0.54303  Biso   1.000  P 
  O7683    1.0000 0.98484  0.71838  0.50426  Biso   1.000  O 
  O7684    1.0000 0.89463  0.71838  0.54556  Biso   1.000  O 
  Ca2956   1.0000 0.99929  0.71838  0.52922  Biso   1.000  Ca
  P1772    1.0000 0.95404  0.71838  0.53241  Biso   1.000  P 
  O7685    1.0000 0.94200  0.71838  0.51720  Biso   1.000  O 
  O7686    1.0000 0.93949  0.71838  0.54628  Biso   1.000  O 
  Ca2957   1.0000 0.90599  0.71838  0.51412  Biso   1.000  Ca
  P1773    1.0000 0.79995  0.71838  0.53729  Biso   1.000  P 
  O7687    1.0000 0.82350  0.71838  0.53707  Biso   1.000  O 
  O7688    1.0000 0.79122  0.71838  0.52089  Biso   1.000  O 
  Ca2958   1.0000 0.78018  0.65589  0.54190  Biso   1.000  Ca
  P1774    1.0000 0.75386  0.65589  0.51405  Biso   1.000  P 
  O7689    1.0000 0.89039  0.65589  0.55283  Biso   1.000  O 
  O7690    1.0000 0.98060  0.65589  0.51152  Biso   1.000  O 
  Ca2959   1.0000 0.87593  0.65589  0.52786  Biso   1.000  Ca
  P1775    1.0000 0.92119  0.65589  0.52468  Biso   1.000  P 
  O7691    1.0000 0.93322  0.65589  0.53989  Biso   1.000  O 
  O7692    1.0000 0.93573  0.65589  0.51080  Biso   1.000  O 
  Ca2960   1.0000 0.96922  0.65589  0.54297  Biso   1.000  Ca
  P1776    1.0000 0.82528  0.65589  0.51979  Biso   1.000  P 
  O7693    1.0000 0.80172  0.65589  0.52001  Biso   1.000  O 
  O7694    1.0000 0.83400  0.65589  0.53619  Biso   1.000  O 
  O7695    1.0000 0.87511  0.64938  0.50143  Biso   1.000  O 
  O7696    1.0000 0.87511  0.71187  0.50143  Biso   1.000  O 
  H591     1.0000 0.87511  0.62920  0.50143  Biso   1.000  H 
  H592     1.0000 0.87522  0.69169  0.50139  Biso   1.000  H 
  O7697    1.0000 0.98942  0.74085  0.58826  Biso   1.000  O 
  O7698    1.0000 0.84286  0.74085  0.58661  Biso   1.000  O 
  O7699    1.0000 0.91805  0.74085  0.60051  Biso   1.000  O 
  O7700    1.0000 0.88580  0.67835  0.57726  Biso   1.000  O 
  O7701    1.0000 0.78236  0.67835  0.57891  Biso   1.000  O 
  O7702    1.0000 0.95717  0.67835  0.56500  Biso   1.000  O 
  O7703    1.0000 0.88580  0.63342  0.57726  Biso   1.000  O 
  O7704    1.0000 0.78236  0.63342  0.57891  Biso   1.000  O 
  O7705    1.0000 0.95717  0.63342  0.56500  Biso   1.000  O 
  O7706    1.0000 0.98942  0.69593  0.58826  Biso   1.000  O 
  O7707    1.0000 0.84286  0.69593  0.58661  Biso   1.000  O 
  O7708    1.0000 0.91805  0.69593  0.60051  Biso   1.000  O 
  Ca2961   1.0000 0.91678  0.74945  0.55565  Biso   1.000  Ca
  Ca2962   1.0000 0.83344  0.68696  0.55565  Biso   1.000  Ca
  Ca2963   1.0000 0.83344  0.74982  0.55565  Biso   1.000  Ca
  Ca2964   1.0000 0.91678  0.68731  0.55565  Biso   1.000  Ca
  Ca2965   1.0000 0.97006  0.71838  0.56941  Biso   1.000  Ca
  P1777    1.0000 0.99636  0.71838  0.59725  Biso   1.000  P 
  O7709    1.0000 0.85984  0.71838  0.55847  Biso   1.000  O 
  O7710    1.0000 0.76963  0.71838  0.59978  Biso   1.000  O 
  Ca2966   1.0000 0.87429  0.71838  0.58343  Biso   1.000  Ca
  P1778    1.0000 0.82904  0.71838  0.58662  Biso   1.000  P 
  O7711    1.0000 0.81700  0.71838  0.57141  Biso   1.000  O 
  O7712    1.0000 0.81449  0.71838  0.60050  Biso   1.000  O 
  Ca2967   1.0000 0.78099  0.71838  0.56834  Biso   1.000  Ca
  P1779    1.0000 0.92495  0.71838  0.59151  Biso   1.000  P 
  O7713    1.0000 0.94850  0.71838  0.59129  Biso   1.000  O 
  O7714    1.0000 0.91622  0.71838  0.57511  Biso   1.000  O 
  Ca2968   1.0000 0.90518  0.65589  0.59611  Biso   1.000  Ca
  P1780    1.0000 0.87886  0.65589  0.56827  Biso   1.000  P 
  O7715    1.0000 0.76539  0.65589  0.60705  Biso   1.000  O 
  O7716    1.0000 0.85560  0.65589  0.56574  Biso   1.000  O 
  Ca2969   1.0000 0.75093  0.65589  0.58208  Biso   1.000  Ca
  P1781    1.0000 0.79619  0.65589  0.57890  Biso   1.000  P 
  O7717    1.0000 0.80822  0.65589  0.59411  Biso   1.000  O 
  O7718    1.0000 0.81073  0.65589  0.56502  Biso   1.000  O 
  Ca2970   1.0000 0.84422  0.65589  0.59719  Biso   1.000  Ca
  P1782    1.0000 0.95028  0.65589  0.57400  Biso   1.000  P 
  O7719    1.0000 0.92672  0.65589  0.57423  Biso   1.000  O 
  O7720    1.0000 0.95900  0.65589  0.59041  Biso   1.000  O 
  O7721    1.0000 0.75011  0.64938  0.55565  Biso   1.000  O 
  O7722    1.0000 0.75011  0.71187  0.55565  Biso   1.000  O 
  H593     1.0000 0.75011  0.62920  0.55565  Biso   1.000  H 
  H594     1.0000 0.75022  0.69169  0.55561  Biso   1.000  H 
  O7723    1.0000 0.86442  0.74085  0.64248  Biso   1.000  O 
  O7724    1.0000 0.96786  0.74085  0.64083  Biso   1.000  O 
  O7725    1.0000 0.79305  0.74085  0.65473  Biso   1.000  O 
  O7726    1.0000 0.76080  0.67835  0.63147  Biso   1.000  O 
  O7727    1.0000 0.90736  0.67835  0.63313  Biso   1.000  O 
  O7728    1.0000 0.83217  0.67835  0.61922  Biso   1.000  O 
  O7729    1.0000 0.76080  0.63342  0.63147  Biso   1.000  O 
  O7730    1.0000 0.90736  0.63342  0.63313  Biso   1.000  O 
  O7731    1.0000 0.83217  0.63342  0.61922  Biso   1.000  O 
  O7732    1.0000 0.86442  0.69593  0.64248  Biso   1.000  O 
  O7733    1.0000 0.96786  0.69593  0.64083  Biso   1.000  O 
  O7734    1.0000 0.79305  0.69593  0.65473  Biso   1.000  O 
  Ca2971   1.0000 0.79178  0.74945  0.60986  Biso   1.000  Ca
  Ca2972   1.0000 0.95844  0.68696  0.60987  Biso   1.000  Ca
  Ca2973   1.0000 0.95844  0.74982  0.60987  Biso   1.000  Ca
  Ca2974   1.0000 0.79178  0.68731  0.60986  Biso   1.000  Ca
  Ca2975   1.0000 0.84506  0.71838  0.62363  Biso   1.000  Ca
  P1783    1.0000 0.87136  0.71838  0.65147  Biso   1.000  P 
  O7735    1.0000 0.98484  0.71838  0.61269  Biso   1.000  O 
  O7736    1.0000 0.89463  0.71838  0.65400  Biso   1.000  O 
  Ca2976   1.0000 0.99929  0.71838  0.63765  Biso   1.000  Ca
  P1784    1.0000 0.95404  0.71838  0.64084  Biso   1.000  P 
  O7737    1.0000 0.94200  0.71838  0.62563  Biso   1.000  O 
  O7738    1.0000 0.93949  0.71838  0.65471  Biso   1.000  O 
  Ca2977   1.0000 0.90599  0.71838  0.62255  Biso   1.000  Ca
  P1785    1.0000 0.79995  0.71838  0.64573  Biso   1.000  P 
  O7739    1.0000 0.82350  0.71838  0.64551  Biso   1.000  O 
  O7740    1.0000 0.79122  0.71838  0.62933  Biso   1.000  O 
  Ca2978   1.0000 0.78018  0.65589  0.65033  Biso   1.000  Ca
  P1786    1.0000 0.75386  0.65589  0.62248  Biso   1.000  P 
  O7741    1.0000 0.89039  0.65589  0.66127  Biso   1.000  O 
  O7742    1.0000 0.98060  0.65589  0.61996  Biso   1.000  O 
  Ca2979   1.0000 0.87593  0.65589  0.63630  Biso   1.000  Ca
  P1787    1.0000 0.92119  0.65589  0.63312  Biso   1.000  P 
  O7743    1.0000 0.93322  0.65589  0.64833  Biso   1.000  O 
  O7744    1.0000 0.93573  0.65589  0.61924  Biso   1.000  O 
  Ca2980   1.0000 0.96922  0.65589  0.65141  Biso   1.000  Ca
  P1788    1.0000 0.82528  0.65589  0.62822  Biso   1.000  P 
  O7745    1.0000 0.80172  0.65589  0.62845  Biso   1.000  O 
  O7746    1.0000 0.83400  0.65589  0.64462  Biso   1.000  O 
  O7747    1.0000 0.87511  0.64938  0.60987  Biso   1.000  O 
  O7748    1.0000 0.87511  0.71187  0.60987  Biso   1.000  O 
  H595     1.0000 0.87511  0.62920  0.60987  Biso   1.000  H 
  H596     1.0000 0.87522  0.69169  0.60982  Biso   1.000  H 
  O7749    1.0000 0.98942  0.74085  0.69670  Biso   1.000  O 
  O7750    1.0000 0.84286  0.74085  0.69504  Biso   1.000  O 
  O7751    1.0000 0.91805  0.74085  0.70895  Biso   1.000  O 
  O7752    1.0000 0.88580  0.67835  0.68569  Biso   1.000  O 
  O7753    1.0000 0.78236  0.67835  0.68734  Biso   1.000  O 
  O7754    1.0000 0.95717  0.67835  0.67344  Biso   1.000  O 
  O7755    1.0000 0.88580  0.63342  0.68569  Biso   1.000  O 
  O7756    1.0000 0.78236  0.63342  0.68734  Biso   1.000  O 
  O7757    1.0000 0.95717  0.63342  0.67344  Biso   1.000  O 
  O7758    1.0000 0.98942  0.69593  0.69670  Biso   1.000  O 
  O7759    1.0000 0.84286  0.69593  0.69504  Biso   1.000  O 
  O7760    1.0000 0.91805  0.69593  0.70895  Biso   1.000  O 
  Ca2981   1.0000 0.91678  0.74945  0.66408  Biso   1.000  Ca
  Ca2982   1.0000 0.83344  0.68696  0.66409  Biso   1.000  Ca
  Ca2983   1.0000 0.83344  0.74982  0.66409  Biso   1.000  Ca
  Ca2984   1.0000 0.91678  0.68731  0.66408  Biso   1.000  Ca
  Ca2985   1.0000 0.97006  0.71838  0.67784  Biso   1.000  Ca
  P1789    1.0000 0.99636  0.71838  0.70569  Biso   1.000  P 
  O7761    1.0000 0.85984  0.71838  0.66691  Biso   1.000  O 
  O7762    1.0000 0.76963  0.71838  0.70822  Biso   1.000  O 
  Ca2986   1.0000 0.87429  0.71838  0.69187  Biso   1.000  Ca
  P1790    1.0000 0.82904  0.71838  0.69506  Biso   1.000  P 
  O7763    1.0000 0.81700  0.71838  0.67985  Biso   1.000  O 
  O7764    1.0000 0.81449  0.71838  0.70893  Biso   1.000  O 
  Ca2987   1.0000 0.78099  0.71838  0.67677  Biso   1.000  Ca
  P1791    1.0000 0.92495  0.71838  0.69995  Biso   1.000  P 
  O7765    1.0000 0.94850  0.71838  0.69973  Biso   1.000  O 
  O7766    1.0000 0.91622  0.71838  0.68355  Biso   1.000  O 
  Ca2988   1.0000 0.90518  0.65589  0.70455  Biso   1.000  Ca
  P1792    1.0000 0.87886  0.65589  0.67670  Biso   1.000  P 
  O7767    1.0000 0.76539  0.65589  0.71548  Biso   1.000  O 
  O7768    1.0000 0.85560  0.65589  0.67418  Biso   1.000  O 
  Ca2989   1.0000 0.75093  0.65589  0.69052  Biso   1.000  Ca
  P1793    1.0000 0.79619  0.65589  0.68733  Biso   1.000  P 
  O7769    1.0000 0.80822  0.65589  0.70255  Biso   1.000  O 
  O7770    1.0000 0.81073  0.65589  0.67346  Biso   1.000  O 
  Ca2990   1.0000 0.84422  0.65589  0.70563  Biso   1.000  Ca
  P1794    1.0000 0.95028  0.65589  0.68244  Biso   1.000  P 
  O7771    1.0000 0.92672  0.65589  0.68266  Biso   1.000  O 
  O7772    1.0000 0.95900  0.65589  0.69884  Biso   1.000  O 
  O7773    1.0000 0.75011  0.64938  0.66409  Biso   1.000  O 
  O7774    1.0000 0.75011  0.71187  0.66409  Biso   1.000  O 
  H597     1.0000 0.75011  0.62920  0.66409  Biso   1.000  H 
  H598     1.0000 0.75022  0.69169  0.66404  Biso   1.000  H 
  O7775    1.0000 0.86442  0.74085  0.75091  Biso   1.000  O 
  O7776    1.0000 0.96786  0.74085  0.74926  Biso   1.000  O 
  O7777    1.0000 0.79305  0.74085  0.76317  Biso   1.000  O 
  O7778    1.0000 0.76080  0.67835  0.73991  Biso   1.000  O 
  O7779    1.0000 0.90736  0.67835  0.74156  Biso   1.000  O 
  O7780    1.0000 0.83217  0.67835  0.72766  Biso   1.000  O 
  O7781    1.0000 0.76080  0.63342  0.73991  Biso   1.000  O 
  O7782    1.0000 0.90736  0.63342  0.74156  Biso   1.000  O 
  O7783    1.0000 0.83217  0.63342  0.72766  Biso   1.000  O 
  O7784    1.0000 0.86442  0.69593  0.75091  Biso   1.000  O 
  O7785    1.0000 0.96786  0.69593  0.74926  Biso   1.000  O 
  O7786    1.0000 0.79305  0.69593  0.76317  Biso   1.000  O 
  Ca2991   1.0000 0.79178  0.74945  0.71830  Biso   1.000  Ca
  Ca2992   1.0000 0.95844  0.68696  0.71831  Biso   1.000  Ca
  Ca2993   1.0000 0.95844  0.74982  0.71831  Biso   1.000  Ca
  Ca2994   1.0000 0.79178  0.68731  0.71830  Biso   1.000  Ca
  Ca2995   1.0000 0.84506  0.71838  0.73206  Biso   1.000  Ca
  P1795    1.0000 0.87136  0.71838  0.75990  Biso   1.000  P 
  O7787    1.0000 0.98484  0.71838  0.72113  Biso   1.000  O 
  O7788    1.0000 0.89463  0.71838  0.76243  Biso   1.000  O 
  Ca2996   1.0000 0.99929  0.71838  0.74609  Biso   1.000  Ca
  P1796    1.0000 0.95404  0.71838  0.74928  Biso   1.000  P 
  O7789    1.0000 0.94200  0.71838  0.73407  Biso   1.000  O 
  O7790    1.0000 0.93949  0.71838  0.76315  Biso   1.000  O 
  Ca2997   1.0000 0.90599  0.71838  0.73099  Biso   1.000  Ca
  P1797    1.0000 0.79995  0.71838  0.75417  Biso   1.000  P 
  O7791    1.0000 0.82350  0.71838  0.75394  Biso   1.000  O 
  O7792    1.0000 0.79122  0.71838  0.73776  Biso   1.000  O 
  Ca2998   1.0000 0.78018  0.65589  0.75877  Biso   1.000  Ca
  P1798    1.0000 0.75386  0.65589  0.73092  Biso   1.000  P 
  O7793    1.0000 0.89039  0.65589  0.76970  Biso   1.000  O 
  O7794    1.0000 0.98060  0.65589  0.72840  Biso   1.000  O 
  Ca2999   1.0000 0.87593  0.65589  0.74474  Biso   1.000  Ca
  P1799    1.0000 0.92119  0.65589  0.74155  Biso   1.000  P 
  O7795    1.0000 0.93322  0.65589  0.75677  Biso   1.000  O 
  O7796    1.0000 0.93573  0.65589  0.72767  Biso   1.000  O 
  Ca3000   1.0000 0.96922  0.65589  0.75984  Biso   1.000  Ca
  P1800    1.0000 0.82528  0.65589  0.73666  Biso   1.000  P 
  O7797    1.0000 0.80172  0.65589  0.73688  Biso   1.000  O 
  O7798    1.0000 0.83400  0.65589  0.75306  Biso   1.000  O 
  O7799    1.0000 0.87511  0.64938  0.71831  Biso   1.000  O 
  O7800    1.0000 0.87511  0.71187  0.71831  Biso   1.000  O 
  H599     1.0000 0.87511  0.62920  0.71831  Biso   1.000  H 
  H600     1.0000 0.87522  0.69169  0.71826  Biso   1.000  H 
  O7801    1.0000 0.98942  0.86585  0.26295  Biso   1.000  O 
  O7802    1.0000 0.84286  0.86585  0.26130  Biso   1.000  O 
  O7803    1.0000 0.91805  0.86585  0.27520  Biso   1.000  O 
  O7804    1.0000 0.88580  0.80335  0.25195  Biso   1.000  O 
  O7805    1.0000 0.78236  0.80335  0.25360  Biso   1.000  O 
  O7806    1.0000 0.95717  0.80335  0.23970  Biso   1.000  O 
  O7807    1.0000 0.88580  0.75842  0.25195  Biso   1.000  O 
  O7808    1.0000 0.78236  0.75842  0.25360  Biso   1.000  O 
  O7809    1.0000 0.95717  0.75842  0.23970  Biso   1.000  O 
  O7810    1.0000 0.98942  0.82093  0.26295  Biso   1.000  O 
  O7811    1.0000 0.84286  0.82093  0.26130  Biso   1.000  O 
  O7812    1.0000 0.91805  0.82093  0.27520  Biso   1.000  O 
  Ca3001   1.0000 0.91678  0.87445  0.23034  Biso   1.000  Ca
  Ca3002   1.0000 0.83344  0.81196  0.23035  Biso   1.000  Ca
  Ca3003   1.0000 0.83344  0.87482  0.23035  Biso   1.000  Ca
  Ca3004   1.0000 0.91678  0.81231  0.23034  Biso   1.000  Ca
  Ca3005   1.0000 0.97006  0.84338  0.24410  Biso   1.000  Ca
  P1801    1.0000 0.99636  0.84338  0.27194  Biso   1.000  P 
  O7813    1.0000 0.85984  0.84338  0.23317  Biso   1.000  O 
  O7814    1.0000 0.76963  0.84338  0.27447  Biso   1.000  O 
  Ca3006   1.0000 0.87429  0.84338  0.25813  Biso   1.000  Ca
  P1802    1.0000 0.82904  0.84338  0.26132  Biso   1.000  P 
  O7815    1.0000 0.81700  0.84338  0.24611  Biso   1.000  O 
  O7816    1.0000 0.81449  0.84338  0.27519  Biso   1.000  O 
  Ca3007   1.0000 0.78099  0.84338  0.24303  Biso   1.000  Ca
  P1803    1.0000 0.92495  0.84338  0.26620  Biso   1.000  P 
  O7817    1.0000 0.94850  0.84338  0.26598  Biso   1.000  O 
  O7818    1.0000 0.91622  0.84338  0.24980  Biso   1.000  O 
  Ca3008   1.0000 0.90518  0.78089  0.27081  Biso   1.000  Ca
  P1804    1.0000 0.87886  0.78089  0.24296  Biso   1.000  P 
  O7819    1.0000 0.76539  0.78089  0.28174  Biso   1.000  O 
  O7820    1.0000 0.85560  0.78089  0.24043  Biso   1.000  O 
  Ca3009   1.0000 0.75093  0.78089  0.25677  Biso   1.000  Ca
  P1805    1.0000 0.79619  0.78089  0.25359  Biso   1.000  P 
  O7821    1.0000 0.80822  0.78089  0.26880  Biso   1.000  O 
  O7822    1.0000 0.81073  0.78089  0.23971  Biso   1.000  O 
  Ca3010   1.0000 0.84422  0.78089  0.27188  Biso   1.000  Ca
  P1806    1.0000 0.95028  0.78089  0.24870  Biso   1.000  P 
  O7823    1.0000 0.92672  0.78089  0.24892  Biso   1.000  O 
  O7824    1.0000 0.95900  0.78089  0.26510  Biso   1.000  O 
  O7825    1.0000 0.75011  0.77438  0.23034  Biso   1.000  O 
  O7826    1.0000 0.75011  0.83687  0.23034  Biso   1.000  O 
  H601     1.0000 0.75011  0.75420  0.23034  Biso   1.000  H 
  H602     1.0000 0.75022  0.81669  0.23030  Biso   1.000  H 
  O7827    1.0000 0.86442  0.86585  0.31717  Biso   1.000  O 
  O7828    1.0000 0.96786  0.86585  0.31552  Biso   1.000  O 
  O7829    1.0000 0.79305  0.86585  0.32942  Biso   1.000  O 
  O7830    1.0000 0.76080  0.80335  0.30617  Biso   1.000  O 
  O7831    1.0000 0.90736  0.80335  0.30782  Biso   1.000  O 
  O7832    1.0000 0.83217  0.80335  0.29391  Biso   1.000  O 
  O7833    1.0000 0.76080  0.75842  0.30617  Biso   1.000  O 
  O7834    1.0000 0.90736  0.75842  0.30782  Biso   1.000  O 
  O7835    1.0000 0.83217  0.75842  0.29391  Biso   1.000  O 
  O7836    1.0000 0.86442  0.82093  0.31717  Biso   1.000  O 
  O7837    1.0000 0.96786  0.82093  0.31552  Biso   1.000  O 
  O7838    1.0000 0.79305  0.82093  0.32942  Biso   1.000  O 
  Ca3011   1.0000 0.79178  0.87445  0.28456  Biso   1.000  Ca
  Ca3012   1.0000 0.95844  0.81196  0.28456  Biso   1.000  Ca
  Ca3013   1.0000 0.95844  0.87482  0.28456  Biso   1.000  Ca
  Ca3014   1.0000 0.79178  0.81231  0.28456  Biso   1.000  Ca
  Ca3015   1.0000 0.84506  0.84338  0.29832  Biso   1.000  Ca
  P1807    1.0000 0.87136  0.84338  0.32616  Biso   1.000  P 
  O7839    1.0000 0.98484  0.84338  0.28738  Biso   1.000  O 
  O7840    1.0000 0.89463  0.84338  0.32869  Biso   1.000  O 
  Ca3016   1.0000 0.99929  0.84338  0.31234  Biso   1.000  Ca
  P1808    1.0000 0.95404  0.84338  0.31554  Biso   1.000  P 
  O7841    1.0000 0.94200  0.84338  0.30033  Biso   1.000  O 
  O7842    1.0000 0.93949  0.84338  0.32941  Biso   1.000  O 
  Ca3017   1.0000 0.90599  0.84338  0.29725  Biso   1.000  Ca
  P1809    1.0000 0.79995  0.84338  0.32042  Biso   1.000  P 
  O7843    1.0000 0.82350  0.84338  0.32020  Biso   1.000  O 
  O7844    1.0000 0.79122  0.84338  0.30402  Biso   1.000  O 
  Ca3018   1.0000 0.78018  0.78089  0.32502  Biso   1.000  Ca
  P1810    1.0000 0.75386  0.78089  0.29718  Biso   1.000  P 
  O7845    1.0000 0.89039  0.78089  0.33596  Biso   1.000  O 
  O7846    1.0000 0.98060  0.78089  0.29465  Biso   1.000  O 
  Ca3019   1.0000 0.87593  0.78089  0.31099  Biso   1.000  Ca
  P1811    1.0000 0.92119  0.78089  0.30781  Biso   1.000  P 
  O7847    1.0000 0.93322  0.78089  0.32302  Biso   1.000  O 
  O7848    1.0000 0.93573  0.78089  0.29393  Biso   1.000  O 
  Ca3020   1.0000 0.96922  0.78089  0.32610  Biso   1.000  Ca
  P1812    1.0000 0.82528  0.78089  0.30291  Biso   1.000  P 
  O7849    1.0000 0.80172  0.78089  0.30314  Biso   1.000  O 
  O7850    1.0000 0.83400  0.78089  0.31932  Biso   1.000  O 
  O7851    1.0000 0.87511  0.77438  0.28456  Biso   1.000  O 
  O7852    1.0000 0.87511  0.83687  0.28456  Biso   1.000  O 
  H603     1.0000 0.87511  0.75420  0.28456  Biso   1.000  H 
  H604     1.0000 0.87522  0.81669  0.28452  Biso   1.000  H 
  O7853    1.0000 0.98942  0.86585  0.37139  Biso   1.000  O 
  O7854    1.0000 0.84286  0.86585  0.36974  Biso   1.000  O 
  O7855    1.0000 0.91805  0.86585  0.38364  Biso   1.000  O 
  O7856    1.0000 0.88580  0.80335  0.36038  Biso   1.000  O 
  O7857    1.0000 0.78236  0.80335  0.36204  Biso   1.000  O 
  O7858    1.0000 0.95717  0.80335  0.34813  Biso   1.000  O 
  O7859    1.0000 0.88580  0.75842  0.36038  Biso   1.000  O 
  O7860    1.0000 0.78236  0.75842  0.36204  Biso   1.000  O 
  O7861    1.0000 0.95717  0.75842  0.34813  Biso   1.000  O 
  O7862    1.0000 0.98942  0.82093  0.37139  Biso   1.000  O 
  O7863    1.0000 0.84286  0.82093  0.36974  Biso   1.000  O 
  O7864    1.0000 0.91805  0.82093  0.38364  Biso   1.000  O 
  Ca3021   1.0000 0.91678  0.87445  0.33877  Biso   1.000  Ca
  Ca3022   1.0000 0.83344  0.81196  0.33878  Biso   1.000  Ca
  Ca3023   1.0000 0.83344  0.87482  0.33878  Biso   1.000  Ca
  Ca3024   1.0000 0.91678  0.81231  0.33877  Biso   1.000  Ca
  Ca3025   1.0000 0.97006  0.84338  0.35254  Biso   1.000  Ca
  P1813    1.0000 0.99636  0.84338  0.38038  Biso   1.000  P 
  O7865    1.0000 0.85984  0.84338  0.34160  Biso   1.000  O 
  O7866    1.0000 0.76963  0.84338  0.38291  Biso   1.000  O 
  Ca3026   1.0000 0.87429  0.84338  0.36656  Biso   1.000  Ca
  P1814    1.0000 0.82904  0.84338  0.36975  Biso   1.000  P 
  O7867    1.0000 0.81700  0.84338  0.35454  Biso   1.000  O 
  O7868    1.0000 0.81449  0.84338  0.38362  Biso   1.000  O 
  Ca3027   1.0000 0.78099  0.84338  0.35146  Biso   1.000  Ca
  P1815    1.0000 0.92495  0.84338  0.37464  Biso   1.000  P 
  O7869    1.0000 0.94850  0.84338  0.37442  Biso   1.000  O 
  O7870    1.0000 0.91622  0.84338  0.35824  Biso   1.000  O 
  Ca3028   1.0000 0.90518  0.78089  0.37924  Biso   1.000  Ca
  P1816    1.0000 0.87886  0.78089  0.35140  Biso   1.000  P 
  O7871    1.0000 0.76539  0.78089  0.39018  Biso   1.000  O 
  O7872    1.0000 0.85560  0.78089  0.34887  Biso   1.000  O 
  Ca3029   1.0000 0.75093  0.78089  0.36521  Biso   1.000  Ca
  P1817    1.0000 0.79619  0.78089  0.36203  Biso   1.000  P 
  O7873    1.0000 0.80822  0.78089  0.37724  Biso   1.000  O 
  O7874    1.0000 0.81073  0.78089  0.34815  Biso   1.000  O 
  Ca3030   1.0000 0.84422  0.78089  0.38032  Biso   1.000  Ca
  P1818    1.0000 0.95028  0.78089  0.35713  Biso   1.000  P 
  O7875    1.0000 0.92672  0.78089  0.35736  Biso   1.000  O 
  O7876    1.0000 0.95900  0.78089  0.37353  Biso   1.000  O 
  O7877    1.0000 0.75011  0.77438  0.33878  Biso   1.000  O 
  O7878    1.0000 0.75011  0.83687  0.33878  Biso   1.000  O 
  H605     1.0000 0.75011  0.75420  0.33878  Biso   1.000  H 
  H606     1.0000 0.75022  0.81669  0.33873  Biso   1.000  H 
  O7879    1.0000 0.86442  0.86585  0.42561  Biso   1.000  O 
  O7880    1.0000 0.96786  0.86585  0.42395  Biso   1.000  O 
  O7881    1.0000 0.79305  0.86585  0.43786  Biso   1.000  O 
  O7882    1.0000 0.76080  0.80335  0.41460  Biso   1.000  O 
  O7883    1.0000 0.90736  0.80335  0.41625  Biso   1.000  O 
  O7884    1.0000 0.83217  0.80335  0.40235  Biso   1.000  O 
  O7885    1.0000 0.76080  0.75842  0.41460  Biso   1.000  O 
  O7886    1.0000 0.90736  0.75842  0.41625  Biso   1.000  O 
  O7887    1.0000 0.83217  0.75842  0.40235  Biso   1.000  O 
  O7888    1.0000 0.86442  0.82093  0.42561  Biso   1.000  O 
  O7889    1.0000 0.96786  0.82093  0.42395  Biso   1.000  O 
  O7890    1.0000 0.79305  0.82093  0.43786  Biso   1.000  O 
  Ca3031   1.0000 0.79178  0.87445  0.39299  Biso   1.000  Ca
  Ca3032   1.0000 0.95844  0.81196  0.39300  Biso   1.000  Ca
  Ca3033   1.0000 0.95844  0.87482  0.39300  Biso   1.000  Ca
  Ca3034   1.0000 0.79178  0.81231  0.39299  Biso   1.000  Ca
  Ca3035   1.0000 0.84506  0.84338  0.40675  Biso   1.000  Ca
  P1819    1.0000 0.87136  0.84338  0.43460  Biso   1.000  P 
  O7891    1.0000 0.98484  0.84338  0.39582  Biso   1.000  O 
  O7892    1.0000 0.89463  0.84338  0.43713  Biso   1.000  O 
  Ca3036   1.0000 0.99929  0.84338  0.42078  Biso   1.000  Ca
  P1820    1.0000 0.95404  0.84338  0.42397  Biso   1.000  P 
  O7893    1.0000 0.94200  0.84338  0.40876  Biso   1.000  O 
  O7894    1.0000 0.93949  0.84338  0.43784  Biso   1.000  O 
  Ca3037   1.0000 0.90599  0.84338  0.40568  Biso   1.000  Ca
  P1821    1.0000 0.79995  0.84338  0.42886  Biso   1.000  P 
  O7895    1.0000 0.82350  0.84338  0.42864  Biso   1.000  O 
  O7896    1.0000 0.79122  0.84338  0.41246  Biso   1.000  O 
  Ca3038   1.0000 0.78018  0.78089  0.43346  Biso   1.000  Ca
  P1822    1.0000 0.75386  0.78089  0.40561  Biso   1.000  P 
  O7897    1.0000 0.89039  0.78089  0.44439  Biso   1.000  O 
  O7898    1.0000 0.98060  0.78089  0.40309  Biso   1.000  O 
  Ca3039   1.0000 0.87593  0.78089  0.41943  Biso   1.000  Ca
  P1823    1.0000 0.92119  0.78089  0.41624  Biso   1.000  P 
  O7899    1.0000 0.93322  0.78089  0.43146  Biso   1.000  O 
  O7900    1.0000 0.93573  0.78089  0.40237  Biso   1.000  O 
  Ca3040   1.0000 0.96922  0.78089  0.43454  Biso   1.000  Ca
  P1824    1.0000 0.82528  0.78089  0.41135  Biso   1.000  P 
  O7901    1.0000 0.80172  0.78089  0.41157  Biso   1.000  O 
  O7902    1.0000 0.83400  0.78089  0.42775  Biso   1.000  O 
  O7903    1.0000 0.87511  0.77438  0.39300  Biso   1.000  O 
  O7904    1.0000 0.87511  0.83687  0.39300  Biso   1.000  O 
  H607     1.0000 0.87511  0.75420  0.39300  Biso   1.000  H 
  H608     1.0000 0.87522  0.81669  0.39295  Biso   1.000  H 
  O7905    1.0000 0.98942  0.86585  0.47982  Biso   1.000  O 
  O7906    1.0000 0.84286  0.86585  0.47817  Biso   1.000  O 
  O7907    1.0000 0.91805  0.86585  0.49208  Biso   1.000  O 
  O7908    1.0000 0.88580  0.80335  0.46882  Biso   1.000  O 
  O7909    1.0000 0.78236  0.80335  0.47047  Biso   1.000  O 
  O7910    1.0000 0.95717  0.80335  0.45657  Biso   1.000  O 
  O7911    1.0000 0.88580  0.75842  0.46882  Biso   1.000  O 
  O7912    1.0000 0.78236  0.75842  0.47047  Biso   1.000  O 
  O7913    1.0000 0.95717  0.75842  0.45657  Biso   1.000  O 
  O7914    1.0000 0.98942  0.82093  0.47982  Biso   1.000  O 
  O7915    1.0000 0.84286  0.82093  0.47817  Biso   1.000  O 
  O7916    1.0000 0.91805  0.82093  0.49208  Biso   1.000  O 
  Ca3041   1.0000 0.91678  0.87445  0.44721  Biso   1.000  Ca
  Ca3042   1.0000 0.83344  0.81196  0.44722  Biso   1.000  Ca
  Ca3043   1.0000 0.83344  0.87482  0.44722  Biso   1.000  Ca
  Ca3044   1.0000 0.91678  0.81231  0.44721  Biso   1.000  Ca
  Ca3045   1.0000 0.97006  0.84338  0.46097  Biso   1.000  Ca
  P1825    1.0000 0.99636  0.84338  0.48881  Biso   1.000  P 
  O7917    1.0000 0.85984  0.84338  0.45004  Biso   1.000  O 
  O7918    1.0000 0.76963  0.84338  0.49134  Biso   1.000  O 
  Ca3046   1.0000 0.87429  0.84338  0.47500  Biso   1.000  Ca
  P1826    1.0000 0.82904  0.84338  0.47819  Biso   1.000  P 
  O7919    1.0000 0.81700  0.84338  0.46298  Biso   1.000  O 
  O7920    1.0000 0.81449  0.84338  0.49206  Biso   1.000  O 
  Ca3047   1.0000 0.78099  0.84338  0.45990  Biso   1.000  Ca
  P1827    1.0000 0.92495  0.84338  0.48308  Biso   1.000  P 
  O7921    1.0000 0.94850  0.84338  0.48285  Biso   1.000  O 
  O7922    1.0000 0.91622  0.84338  0.46667  Biso   1.000  O 
  Ca3048   1.0000 0.90518  0.78089  0.48768  Biso   1.000  Ca
  P1828    1.0000 0.87886  0.78089  0.45983  Biso   1.000  P 
  O7923    1.0000 0.76539  0.78089  0.49861  Biso   1.000  O 
  O7924    1.0000 0.85560  0.78089  0.45731  Biso   1.000  O 
  Ca3049   1.0000 0.75093  0.78089  0.47365  Biso   1.000  Ca
  P1829    1.0000 0.79619  0.78089  0.47046  Biso   1.000  P 
  O7925    1.0000 0.80822  0.78089  0.48568  Biso   1.000  O 
  O7926    1.0000 0.81073  0.78089  0.45658  Biso   1.000  O 
  Ca3050   1.0000 0.84422  0.78089  0.48875  Biso   1.000  Ca
  P1830    1.0000 0.95028  0.78089  0.46557  Biso   1.000  P 
  O7927    1.0000 0.92672  0.78089  0.46579  Biso   1.000  O 
  O7928    1.0000 0.95900  0.78089  0.48197  Biso   1.000  O 
  O7929    1.0000 0.75011  0.77438  0.44722  Biso   1.000  O 
  O7930    1.0000 0.75011  0.83687  0.44722  Biso   1.000  O 
  H609     1.0000 0.75011  0.75420  0.44722  Biso   1.000  H 
  H610     1.0000 0.75022  0.81669  0.44717  Biso   1.000  H 
  O7931    1.0000 0.86442  0.86585  0.53404  Biso   1.000  O 
  O7932    1.0000 0.96786  0.86585  0.53239  Biso   1.000  O 
  O7933    1.0000 0.79305  0.86585  0.54629  Biso   1.000  O 
  O7934    1.0000 0.76080  0.80335  0.52304  Biso   1.000  O 
  O7935    1.0000 0.90736  0.80335  0.52469  Biso   1.000  O 
  O7936    1.0000 0.83217  0.80335  0.51079  Biso   1.000  O 
  O7937    1.0000 0.76080  0.75842  0.52304  Biso   1.000  O 
  O7938    1.0000 0.90736  0.75842  0.52469  Biso   1.000  O 
  O7939    1.0000 0.83217  0.75842  0.51079  Biso   1.000  O 
  O7940    1.0000 0.86442  0.82093  0.53404  Biso   1.000  O 
  O7941    1.0000 0.96786  0.82093  0.53239  Biso   1.000  O 
  O7942    1.0000 0.79305  0.82093  0.54629  Biso   1.000  O 
  Ca3051   1.0000 0.79178  0.87445  0.50143  Biso   1.000  Ca
  Ca3052   1.0000 0.95844  0.81196  0.50144  Biso   1.000  Ca
  Ca3053   1.0000 0.95844  0.87482  0.50144  Biso   1.000  Ca
  Ca3054   1.0000 0.79178  0.81231  0.50143  Biso   1.000  Ca
  Ca3055   1.0000 0.84506  0.84338  0.51519  Biso   1.000  Ca
  P1831    1.0000 0.87136  0.84338  0.54303  Biso   1.000  P 
  O7943    1.0000 0.98484  0.84338  0.50426  Biso   1.000  O 
  O7944    1.0000 0.89463  0.84338  0.54556  Biso   1.000  O 
  Ca3056   1.0000 0.99929  0.84338  0.52922  Biso   1.000  Ca
  P1832    1.0000 0.95404  0.84338  0.53241  Biso   1.000  P 
  O7945    1.0000 0.94200  0.84338  0.51720  Biso   1.000  O 
  O7946    1.0000 0.93949  0.84338  0.54628  Biso   1.000  O 
  Ca3057   1.0000 0.90599  0.84338  0.51412  Biso   1.000  Ca
  P1833    1.0000 0.79995  0.84338  0.53729  Biso   1.000  P 
  O7947    1.0000 0.82350  0.84338  0.53707  Biso   1.000  O 
  O7948    1.0000 0.79122  0.84338  0.52089  Biso   1.000  O 
  Ca3058   1.0000 0.78018  0.78089  0.54190  Biso   1.000  Ca
  P1834    1.0000 0.75386  0.78089  0.51405  Biso   1.000  P 
  O7949    1.0000 0.89039  0.78089  0.55283  Biso   1.000  O 
  O7950    1.0000 0.98060  0.78089  0.51152  Biso   1.000  O 
  Ca3059   1.0000 0.87593  0.78089  0.52786  Biso   1.000  Ca
  P1835    1.0000 0.92119  0.78089  0.52468  Biso   1.000  P 
  O7951    1.0000 0.93322  0.78089  0.53989  Biso   1.000  O 
  O7952    1.0000 0.93573  0.78089  0.51080  Biso   1.000  O 
  Ca3060   1.0000 0.96922  0.78089  0.54297  Biso   1.000  Ca
  P1836    1.0000 0.82528  0.78089  0.51979  Biso   1.000  P 
  O7953    1.0000 0.80172  0.78089  0.52001  Biso   1.000  O 
  O7954    1.0000 0.83400  0.78089  0.53619  Biso   1.000  O 
  O7955    1.0000 0.87511  0.77438  0.50143  Biso   1.000  O 
  O7956    1.0000 0.87511  0.83687  0.50143  Biso   1.000  O 
  H611     1.0000 0.87511  0.75420  0.50143  Biso   1.000  H 
  H612     1.0000 0.87522  0.81669  0.50139  Biso   1.000  H 
  O7957    1.0000 0.98942  0.86585  0.58826  Biso   1.000  O 
  O7958    1.0000 0.84286  0.86585  0.58661  Biso   1.000  O 
  O7959    1.0000 0.91805  0.86585  0.60051  Biso   1.000  O 
  O7960    1.0000 0.88580  0.80335  0.57726  Biso   1.000  O 
  O7961    1.0000 0.78236  0.80335  0.57891  Biso   1.000  O 
  O7962    1.0000 0.95717  0.80335  0.56500  Biso   1.000  O 
  O7963    1.0000 0.88580  0.75842  0.57726  Biso   1.000  O 
  O7964    1.0000 0.78236  0.75842  0.57891  Biso   1.000  O 
  O7965    1.0000 0.95717  0.75842  0.56500  Biso   1.000  O 
  O7966    1.0000 0.98942  0.82093  0.58826  Biso   1.000  O 
  O7967    1.0000 0.84286  0.82093  0.58661  Biso   1.000  O 
  O7968    1.0000 0.91805  0.82093  0.60051  Biso   1.000  O 
  Ca3061   1.0000 0.91678  0.87445  0.55565  Biso   1.000  Ca
  Ca3062   1.0000 0.83344  0.81196  0.55565  Biso   1.000  Ca
  Ca3063   1.0000 0.83344  0.87482  0.55565  Biso   1.000  Ca
  Ca3064   1.0000 0.91678  0.81231  0.55565  Biso   1.000  Ca
  Ca3065   1.0000 0.97006  0.84338  0.56941  Biso   1.000  Ca
  P1837    1.0000 0.99636  0.84338  0.59725  Biso   1.000  P 
  O7969    1.0000 0.85984  0.84338  0.55847  Biso   1.000  O 
  O7970    1.0000 0.76963  0.84338  0.59978  Biso   1.000  O 
  Ca3066   1.0000 0.87429  0.84338  0.58343  Biso   1.000  Ca
  P1838    1.0000 0.82904  0.84338  0.58662  Biso   1.000  P 
  O7971    1.0000 0.81700  0.84338  0.57141  Biso   1.000  O 
  O7972    1.0000 0.81449  0.84338  0.60050  Biso   1.000  O 
  Ca3067   1.0000 0.78099  0.84338  0.56834  Biso   1.000  Ca
  P1839    1.0000 0.92495  0.84338  0.59151  Biso   1.000  P 
  O7973    1.0000 0.94850  0.84338  0.59129  Biso   1.000  O 
  O7974    1.0000 0.91622  0.84338  0.57511  Biso   1.000  O 
  Ca3068   1.0000 0.90518  0.78089  0.59611  Biso   1.000  Ca
  P1840    1.0000 0.87886  0.78089  0.56827  Biso   1.000  P 
  O7975    1.0000 0.76539  0.78089  0.60705  Biso   1.000  O 
  O7976    1.0000 0.85560  0.78089  0.56574  Biso   1.000  O 
  Ca3069   1.0000 0.75093  0.78089  0.58208  Biso   1.000  Ca
  P1841    1.0000 0.79619  0.78089  0.57890  Biso   1.000  P 
  O7977    1.0000 0.80822  0.78089  0.59411  Biso   1.000  O 
  O7978    1.0000 0.81073  0.78089  0.56502  Biso   1.000  O 
  Ca3070   1.0000 0.84422  0.78089  0.59719  Biso   1.000  Ca
  P1842    1.0000 0.95028  0.78089  0.57400  Biso   1.000  P 
  O7979    1.0000 0.92672  0.78089  0.57423  Biso   1.000  O 
  O7980    1.0000 0.95900  0.78089  0.59041  Biso   1.000  O 
  O7981    1.0000 0.75011  0.77438  0.55565  Biso   1.000  O 
  O7982    1.0000 0.75011  0.83687  0.55565  Biso   1.000  O 
  H613     1.0000 0.75011  0.75420  0.55565  Biso   1.000  H 
  H614     1.0000 0.75022  0.81669  0.55561  Biso   1.000  H 
  O7983    1.0000 0.86442  0.86585  0.64248  Biso   1.000  O 
  O7984    1.0000 0.96786  0.86585  0.64083  Biso   1.000  O 
  O7985    1.0000 0.79305  0.86585  0.65473  Biso   1.000  O 
  O7986    1.0000 0.76080  0.80335  0.63147  Biso   1.000  O 
  O7987    1.0000 0.90736  0.80335  0.63313  Biso   1.000  O 
  O7988    1.0000 0.83217  0.80335  0.61922  Biso   1.000  O 
  O7989    1.0000 0.76080  0.75842  0.63147  Biso   1.000  O 
  O7990    1.0000 0.90736  0.75842  0.63313  Biso   1.000  O 
  O7991    1.0000 0.83217  0.75842  0.61922  Biso   1.000  O 
  O7992    1.0000 0.86442  0.82093  0.64248  Biso   1.000  O 
  O7993    1.0000 0.96786  0.82093  0.64083  Biso   1.000  O 
  O7994    1.0000 0.79305  0.82093  0.65473  Biso   1.000  O 
  Ca3071   1.0000 0.79178  0.87445  0.60986  Biso   1.000  Ca
  Ca3072   1.0000 0.95844  0.81196  0.60987  Biso   1.000  Ca
  Ca3073   1.0000 0.95844  0.87482  0.60987  Biso   1.000  Ca
  Ca3074   1.0000 0.79178  0.81231  0.60986  Biso   1.000  Ca
  Ca3075   1.0000 0.84506  0.84338  0.62363  Biso   1.000  Ca
  P1843    1.0000 0.87136  0.84338  0.65147  Biso   1.000  P 
  O7995    1.0000 0.98484  0.84338  0.61269  Biso   1.000  O 
  O7996    1.0000 0.89463  0.84338  0.65400  Biso   1.000  O 
  Ca3076   1.0000 0.99929  0.84338  0.63765  Biso   1.000  Ca
  P1844    1.0000 0.95404  0.84338  0.64084  Biso   1.000  P 
  O7997    1.0000 0.94200  0.84338  0.62563  Biso   1.000  O 
  O7998    1.0000 0.93949  0.84338  0.65471  Biso   1.000  O 
  Ca3077   1.0000 0.90599  0.84338  0.62255  Biso   1.000  Ca
  P1845    1.0000 0.79995  0.84338  0.64573  Biso   1.000  P 
  O7999    1.0000 0.82350  0.84338  0.64551  Biso   1.000  O 
  O8000    1.0000 0.79122  0.84338  0.62933  Biso   1.000  O 
  Ca3078   1.0000 0.78018  0.78089  0.65033  Biso   1.000  Ca
  P1846    1.0000 0.75386  0.78089  0.62248  Biso   1.000  P 
  O8001    1.0000 0.89039  0.78089  0.66127  Biso   1.000  O 
  O8002    1.0000 0.98060  0.78089  0.61996  Biso   1.000  O 
  Ca3079   1.0000 0.87593  0.78089  0.63630  Biso   1.000  Ca
  P1847    1.0000 0.92119  0.78089  0.63312  Biso   1.000  P 
  O8003    1.0000 0.93322  0.78089  0.64833  Biso   1.000  O 
  O8004    1.0000 0.93573  0.78089  0.61924  Biso   1.000  O 
  Ca3080   1.0000 0.96922  0.78089  0.65141  Biso   1.000  Ca
  P1848    1.0000 0.82528  0.78089  0.62822  Biso   1.000  P 
  O8005    1.0000 0.80172  0.78089  0.62845  Biso   1.000  O 
  O8006    1.0000 0.83400  0.78089  0.64462  Biso   1.000  O 
  O8007    1.0000 0.87511  0.77438  0.60987  Biso   1.000  O 
  O8008    1.0000 0.87511  0.83687  0.60987  Biso   1.000  O 
  H615     1.0000 0.87511  0.75420  0.60987  Biso   1.000  H 
  H616     1.0000 0.87522  0.81669  0.60982  Biso   1.000  H 
  O8009    1.0000 0.98942  0.86585  0.69670  Biso   1.000  O 
  O8010    1.0000 0.84286  0.86585  0.69504  Biso   1.000  O 
  O8011    1.0000 0.91805  0.86585  0.70895  Biso   1.000  O 
  O8012    1.0000 0.88580  0.80335  0.68569  Biso   1.000  O 
  O8013    1.0000 0.78236  0.80335  0.68734  Biso   1.000  O 
  O8014    1.0000 0.95717  0.80335  0.67344  Biso   1.000  O 
  O8015    1.0000 0.88580  0.75842  0.68569  Biso   1.000  O 
  O8016    1.0000 0.78236  0.75842  0.68734  Biso   1.000  O 
  O8017    1.0000 0.95717  0.75842  0.67344  Biso   1.000  O 
  O8018    1.0000 0.98942  0.82093  0.69670  Biso   1.000  O 
  O8019    1.0000 0.84286  0.82093  0.69504  Biso   1.000  O 
  O8020    1.0000 0.91805  0.82093  0.70895  Biso   1.000  O 
  Ca3081   1.0000 0.91678  0.87445  0.66408  Biso   1.000  Ca
  Ca3082   1.0000 0.83344  0.81196  0.66409  Biso   1.000  Ca
  Ca3083   1.0000 0.83344  0.87482  0.66409  Biso   1.000  Ca
  Ca3084   1.0000 0.91678  0.81231  0.66408  Biso   1.000  Ca
  Ca3085   1.0000 0.97006  0.84338  0.67784  Biso   1.000  Ca
  P1849    1.0000 0.99636  0.84338  0.70569  Biso   1.000  P 
  O8021    1.0000 0.85984  0.84338  0.66691  Biso   1.000  O 
  O8022    1.0000 0.76963  0.84338  0.70822  Biso   1.000  O 
  Ca3086   1.0000 0.87429  0.84338  0.69187  Biso   1.000  Ca
  P1850    1.0000 0.82904  0.84338  0.69506  Biso   1.000  P 
  O8023    1.0000 0.81700  0.84338  0.67985  Biso   1.000  O 
  O8024    1.0000 0.81449  0.84338  0.70893  Biso   1.000  O 
  Ca3087   1.0000 0.78099  0.84338  0.67677  Biso   1.000  Ca
  P1851    1.0000 0.92495  0.84338  0.69995  Biso   1.000  P 
  O8025    1.0000 0.94850  0.84338  0.69973  Biso   1.000  O 
  O8026    1.0000 0.91622  0.84338  0.68355  Biso   1.000  O 
  Ca3088   1.0000 0.90518  0.78089  0.70455  Biso   1.000  Ca
  P1852    1.0000 0.87886  0.78089  0.67670  Biso   1.000  P 
  O8027    1.0000 0.76539  0.78089  0.71548  Biso   1.000  O 
  O8028    1.0000 0.85560  0.78089  0.67418  Biso   1.000  O 
  Ca3089   1.0000 0.75093  0.78089  0.69052  Biso   1.000  Ca
  P1853    1.0000 0.79619  0.78089  0.68733  Biso   1.000  P 
  O8029    1.0000 0.80822  0.78089  0.70255  Biso   1.000  O 
  O8030    1.0000 0.81073  0.78089  0.67346  Biso   1.000  O 
  Ca3090   1.0000 0.84422  0.78089  0.70563  Biso   1.000  Ca
  P1854    1.0000 0.95028  0.78089  0.68244  Biso   1.000  P 
  O8031    1.0000 0.92672  0.78089  0.68266  Biso   1.000  O 
  O8032    1.0000 0.95900  0.78089  0.69884  Biso   1.000  O 
  O8033    1.0000 0.75011  0.77438  0.66409  Biso   1.000  O 
  O8034    1.0000 0.75011  0.83687  0.66409  Biso   1.000  O 
  H617     1.0000 0.75011  0.75420  0.66409  Biso   1.000  H 
  H618     1.0000 0.75022  0.81669  0.66404  Biso   1.000  H 
  O8035    1.0000 0.86442  0.86585  0.75091  Biso   1.000  O 
  O8036    1.0000 0.96786  0.86585  0.74926  Biso   1.000  O 
  O8037    1.0000 0.79305  0.86585  0.76317  Biso   1.000  O 
  O8038    1.0000 0.76080  0.80335  0.73991  Biso   1.000  O 
  O8039    1.0000 0.90736  0.80335  0.74156  Biso   1.000  O 
  O8040    1.0000 0.83217  0.80335  0.72766  Biso   1.000  O 
  O8041    1.0000 0.76080  0.75842  0.73991  Biso   1.000  O 
  O8042    1.0000 0.90736  0.75842  0.74156  Biso   1.000  O 
  O8043    1.0000 0.83217  0.75842  0.72766  Biso   1.000  O 
  O8044    1.0000 0.86442  0.82093  0.75091  Biso   1.000  O 
  O8045    1.0000 0.96786  0.82093  0.74926  Biso   1.000  O 
  O8046    1.0000 0.79305  0.82093  0.76317  Biso   1.000  O 
  Ca3091   1.0000 0.79178  0.87445  0.71830  Biso   1.000  Ca
  Ca3092   1.0000 0.95844  0.81196  0.71831  Biso   1.000  Ca
  Ca3093   1.0000 0.95844  0.87482  0.71831  Biso   1.000  Ca
  Ca3094   1.0000 0.79178  0.81231  0.71830  Biso   1.000  Ca
  Ca3095   1.0000 0.84506  0.84338  0.73206  Biso   1.000  Ca
  P1855    1.0000 0.87136  0.84338  0.75990  Biso   1.000  P 
  O8047    1.0000 0.98484  0.84338  0.72113  Biso   1.000  O 
  O8048    1.0000 0.89463  0.84338  0.76243  Biso   1.000  O 
  Ca3096   1.0000 0.99929  0.84338  0.74609  Biso   1.000  Ca
  P1856    1.0000 0.95404  0.84338  0.74928  Biso   1.000  P 
  O8049    1.0000 0.94200  0.84338  0.73407  Biso   1.000  O 
  O8050    1.0000 0.93949  0.84338  0.76315  Biso   1.000  O 
  Ca3097   1.0000 0.90599  0.84338  0.73099  Biso   1.000  Ca
  P1857    1.0000 0.79995  0.84338  0.75417  Biso   1.000  P 
  O8051    1.0000 0.82350  0.84338  0.75394  Biso   1.000  O 
  O8052    1.0000 0.79122  0.84338  0.73776  Biso   1.000  O 
  Ca3098   1.0000 0.78018  0.78089  0.75877  Biso   1.000  Ca
  P1858    1.0000 0.75386  0.78089  0.73092  Biso   1.000  P 
  O8053    1.0000 0.89039  0.78089  0.76970  Biso   1.000  O 
  O8054    1.0000 0.98060  0.78089  0.72840  Biso   1.000  O 
  Ca3099   1.0000 0.87593  0.78089  0.74474  Biso   1.000  Ca
  P1859    1.0000 0.92119  0.78089  0.74155  Biso   1.000  P 
  O8055    1.0000 0.93322  0.78089  0.75677  Biso   1.000  O 
  O8056    1.0000 0.93573  0.78089  0.72767  Biso   1.000  O 
  Ca3100   1.0000 0.96922  0.78089  0.75984  Biso   1.000  Ca
  P1860    1.0000 0.82528  0.78089  0.73666  Biso   1.000  P 
  O8057    1.0000 0.80172  0.78089  0.73688  Biso   1.000  O 
  O8058    1.0000 0.83400  0.78089  0.75306  Biso   1.000  O 
  O8059    1.0000 0.87511  0.77438  0.71831  Biso   1.000  O 
  O8060    1.0000 0.87511  0.83687  0.71831  Biso   1.000  O 
  H619     1.0000 0.87511  0.75420  0.71831  Biso   1.000  H 
  H620     1.0000 0.87522  0.81669  0.71826  Biso   1.000  H 
  O8061    1.0000 0.98942  0.99085  0.26295  Biso   1.000  O 
  O8062    1.0000 0.84286  0.99085  0.26130  Biso   1.000  O 
  O8063    1.0000 0.91805  0.99085  0.27520  Biso   1.000  O 
  O8064    1.0000 0.88580  0.92835  0.25195  Biso   1.000  O 
  O8065    1.0000 0.78236  0.92835  0.25360  Biso   1.000  O 
  O8066    1.0000 0.95717  0.92835  0.23970  Biso   1.000  O 
  O8067    1.0000 0.88580  0.88342  0.25195  Biso   1.000  O 
  O8068    1.0000 0.78236  0.88342  0.25360  Biso   1.000  O 
  O8069    1.0000 0.95717  0.88342  0.23970  Biso   1.000  O 
  O8070    1.0000 0.98942  0.94593  0.26295  Biso   1.000  O 
  O8071    1.0000 0.84286  0.94593  0.26130  Biso   1.000  O 
  O8072    1.0000 0.91805  0.94593  0.27520  Biso   1.000  O 
  Ca3101   1.0000 0.91678  0.99945  0.23034  Biso   1.000  Ca
  Ca3102   1.0000 0.83344  0.93696  0.23035  Biso   1.000  Ca
  Ca3103   1.0000 0.83344  0.99982  0.23035  Biso   1.000  Ca
  Ca3104   1.0000 0.91678  0.93731  0.23034  Biso   1.000  Ca
  Ca3105   1.0000 0.97006  0.96838  0.24410  Biso   1.000  Ca
  P1861    1.0000 0.99636  0.96838  0.27194  Biso   1.000  P 
  O8073    1.0000 0.85984  0.96838  0.23317  Biso   1.000  O 
  O8074    1.0000 0.76963  0.96838  0.27447  Biso   1.000  O 
  Ca3106   1.0000 0.87429  0.96838  0.25813  Biso   1.000  Ca
  P1862    1.0000 0.82904  0.96838  0.26132  Biso   1.000  P 
  O8075    1.0000 0.81700  0.96838  0.24611  Biso   1.000  O 
  O8076    1.0000 0.81449  0.96838  0.27519  Biso   1.000  O 
  Ca3107   1.0000 0.78099  0.96838  0.24303  Biso   1.000  Ca
  P1863    1.0000 0.92495  0.96838  0.26620  Biso   1.000  P 
  O8077    1.0000 0.94850  0.96838  0.26598  Biso   1.000  O 
  O8078    1.0000 0.91622  0.96838  0.24980  Biso   1.000  O 
  Ca3108   1.0000 0.90518  0.90589  0.27081  Biso   1.000  Ca
  P1864    1.0000 0.87886  0.90589  0.24296  Biso   1.000  P 
  O8079    1.0000 0.76539  0.90589  0.28174  Biso   1.000  O 
  O8080    1.0000 0.85560  0.90589  0.24043  Biso   1.000  O 
  Ca3109   1.0000 0.75093  0.90589  0.25677  Biso   1.000  Ca
  P1865    1.0000 0.79619  0.90589  0.25359  Biso   1.000  P 
  O8081    1.0000 0.80822  0.90589  0.26880  Biso   1.000  O 
  O8082    1.0000 0.81073  0.90589  0.23971  Biso   1.000  O 
  Ca3110   1.0000 0.84422  0.90589  0.27188  Biso   1.000  Ca
  P1866    1.0000 0.95028  0.90589  0.24870  Biso   1.000  P 
  O8083    1.0000 0.92672  0.90589  0.24892  Biso   1.000  O 
  O8084    1.0000 0.95900  0.90589  0.26510  Biso   1.000  O 
  O8085    1.0000 0.75011  0.89938  0.23034  Biso   1.000  O 
  O8086    1.0000 0.75011  0.96187  0.23034  Biso   1.000  O 
  H621     1.0000 0.75011  0.87920  0.23034  Biso   1.000  H 
  H622     1.0000 0.75022  0.94169  0.23030  Biso   1.000  H 
  O8087    1.0000 0.86442  0.99085  0.31717  Biso   1.000  O 
  O8088    1.0000 0.96786  0.99085  0.31552  Biso   1.000  O 
  O8089    1.0000 0.79305  0.99085  0.32942  Biso   1.000  O 
  O8090    1.0000 0.76080  0.92835  0.30617  Biso   1.000  O 
  O8091    1.0000 0.90736  0.92835  0.30782  Biso   1.000  O 
  O8092    1.0000 0.83217  0.92835  0.29391  Biso   1.000  O 
  O8093    1.0000 0.76080  0.88342  0.30617  Biso   1.000  O 
  O8094    1.0000 0.90736  0.88342  0.30782  Biso   1.000  O 
  O8095    1.0000 0.83217  0.88342  0.29391  Biso   1.000  O 
  O8096    1.0000 0.86442  0.94593  0.31717  Biso   1.000  O 
  O8097    1.0000 0.96786  0.94593  0.31552  Biso   1.000  O 
  O8098    1.0000 0.79305  0.94593  0.32942  Biso   1.000  O 
  Ca3111   1.0000 0.79178  0.99945  0.28456  Biso   1.000  Ca
  Ca3112   1.0000 0.95844  0.93696  0.28456  Biso   1.000  Ca
  Ca3113   1.0000 0.95844  0.99982  0.28456  Biso   1.000  Ca
  Ca3114   1.0000 0.79178  0.93731  0.28456  Biso   1.000  Ca
  Ca3115   1.0000 0.84506  0.96838  0.29832  Biso   1.000  Ca
  P1867    1.0000 0.87136  0.96838  0.32616  Biso   1.000  P 
  O8099    1.0000 0.98484  0.96838  0.28738  Biso   1.000  O 
  O8100    1.0000 0.89463  0.96838  0.32869  Biso   1.000  O 
  Ca3116   1.0000 0.99929  0.96838  0.31234  Biso   1.000  Ca
  P1868    1.0000 0.95404  0.96838  0.31554  Biso   1.000  P 
  O8101    1.0000 0.94200  0.96838  0.30033  Biso   1.000  O 
  O8102    1.0000 0.93949  0.96838  0.32941  Biso   1.000  O 
  Ca3117   1.0000 0.90599  0.96838  0.29725  Biso   1.000  Ca
  P1869    1.0000 0.79995  0.96838  0.32042  Biso   1.000  P 
  O8103    1.0000 0.82350  0.96838  0.32020  Biso   1.000  O 
  O8104    1.0000 0.79122  0.96838  0.30402  Biso   1.000  O 
  Ca3118   1.0000 0.78018  0.90589  0.32502  Biso   1.000  Ca
  P1870    1.0000 0.75386  0.90589  0.29718  Biso   1.000  P 
  O8105    1.0000 0.89039  0.90589  0.33596  Biso   1.000  O 
  O8106    1.0000 0.98060  0.90589  0.29465  Biso   1.000  O 
  Ca3119   1.0000 0.87593  0.90589  0.31099  Biso   1.000  Ca
  P1871    1.0000 0.92119  0.90589  0.30781  Biso   1.000  P 
  O8107    1.0000 0.93322  0.90589  0.32302  Biso   1.000  O 
  O8108    1.0000 0.93573  0.90589  0.29393  Biso   1.000  O 
  Ca3120   1.0000 0.96922  0.90589  0.32610  Biso   1.000  Ca
  P1872    1.0000 0.82528  0.90589  0.30291  Biso   1.000  P 
  O8109    1.0000 0.80172  0.90589  0.30314  Biso   1.000  O 
  O8110    1.0000 0.83400  0.90589  0.31932  Biso   1.000  O 
  O8111    1.0000 0.87511  0.89938  0.28456  Biso   1.000  O 
  O8112    1.0000 0.87511  0.96187  0.28456  Biso   1.000  O 
  H623     1.0000 0.87511  0.87920  0.28456  Biso   1.000  H 
  H624     1.0000 0.87522  0.94169  0.28452  Biso   1.000  H 
  O8113    1.0000 0.98942  0.99085  0.37139  Biso   1.000  O 
  O8114    1.0000 0.84286  0.99085  0.36974  Biso   1.000  O 
  O8115    1.0000 0.91805  0.99085  0.38364  Biso   1.000  O 
  O8116    1.0000 0.88580  0.92835  0.36038  Biso   1.000  O 
  O8117    1.0000 0.78236  0.92835  0.36204  Biso   1.000  O 
  O8118    1.0000 0.95717  0.92835  0.34813  Biso   1.000  O 
  O8119    1.0000 0.88580  0.88342  0.36038  Biso   1.000  O 
  O8120    1.0000 0.78236  0.88342  0.36204  Biso   1.000  O 
  O8121    1.0000 0.95717  0.88342  0.34813  Biso   1.000  O 
  O8122    1.0000 0.98942  0.94593  0.37139  Biso   1.000  O 
  O8123    1.0000 0.84286  0.94593  0.36974  Biso   1.000  O 
  O8124    1.0000 0.91805  0.94593  0.38364  Biso   1.000  O 
  Ca3121   1.0000 0.91678  0.99945  0.33877  Biso   1.000  Ca
  Ca3122   1.0000 0.83344  0.93696  0.33878  Biso   1.000  Ca
  Ca3123   1.0000 0.83344  0.99982  0.33878  Biso   1.000  Ca
  Ca3124   1.0000 0.91678  0.93731  0.33877  Biso   1.000  Ca
  Ca3125   1.0000 0.97006  0.96838  0.35254  Biso   1.000  Ca
  P1873    1.0000 0.99636  0.96838  0.38038  Biso   1.000  P 
  O8125    1.0000 0.85984  0.96838  0.34160  Biso   1.000  O 
  O8126    1.0000 0.76963  0.96838  0.38291  Biso   1.000  O 
  Ca3126   1.0000 0.87429  0.96838  0.36656  Biso   1.000  Ca
  P1874    1.0000 0.82904  0.96838  0.36975  Biso   1.000  P 
  O8127    1.0000 0.81700  0.96838  0.35454  Biso   1.000  O 
  O8128    1.0000 0.81449  0.96838  0.38362  Biso   1.000  O 
  Ca3127   1.0000 0.78099  0.96838  0.35146  Biso   1.000  Ca
  P1875    1.0000 0.92495  0.96838  0.37464  Biso   1.000  P 
  O8129    1.0000 0.94850  0.96838  0.37442  Biso   1.000  O 
  O8130    1.0000 0.91622  0.96838  0.35824  Biso   1.000  O 
  Ca3128   1.0000 0.90518  0.90589  0.37924  Biso   1.000  Ca
  P1876    1.0000 0.87886  0.90589  0.35140  Biso   1.000  P 
  O8131    1.0000 0.76539  0.90589  0.39018  Biso   1.000  O 
  O8132    1.0000 0.85560  0.90589  0.34887  Biso   1.000  O 
  Ca3129   1.0000 0.75093  0.90589  0.36521  Biso   1.000  Ca
  P1877    1.0000 0.79619  0.90589  0.36203  Biso   1.000  P 
  O8133    1.0000 0.80822  0.90589  0.37724  Biso   1.000  O 
  O8134    1.0000 0.81073  0.90589  0.34815  Biso   1.000  O 
  Ca3130   1.0000 0.84422  0.90589  0.38032  Biso   1.000  Ca
  P1878    1.0000 0.95028  0.90589  0.35713  Biso   1.000  P 
  O8135    1.0000 0.92672  0.90589  0.35736  Biso   1.000  O 
  O8136    1.0000 0.95900  0.90589  0.37353  Biso   1.000  O 
  O8137    1.0000 0.75011  0.89938  0.33878  Biso   1.000  O 
  O8138    1.0000 0.75011  0.96187  0.33878  Biso   1.000  O 
  H625     1.0000 0.75011  0.87920  0.33878  Biso   1.000  H 
  H626     1.0000 0.75022  0.94169  0.33873  Biso   1.000  H 
  O8139    1.0000 0.86442  0.99085  0.42561  Biso   1.000  O 
  O8140    1.0000 0.96786  0.99085  0.42395  Biso   1.000  O 
  O8141    1.0000 0.79305  0.99085  0.43786  Biso   1.000  O 
  O8142    1.0000 0.76080  0.92835  0.41460  Biso   1.000  O 
  O8143    1.0000 0.90736  0.92835  0.41625  Biso   1.000  O 
  O8144    1.0000 0.83217  0.92835  0.40235  Biso   1.000  O 
  O8145    1.0000 0.76080  0.88342  0.41460  Biso   1.000  O 
  O8146    1.0000 0.90736  0.88342  0.41625  Biso   1.000  O 
  O8147    1.0000 0.83217  0.88342  0.40235  Biso   1.000  O 
  O8148    1.0000 0.86442  0.94593  0.42561  Biso   1.000  O 
  O8149    1.0000 0.96786  0.94593  0.42395  Biso   1.000  O 
  O8150    1.0000 0.79305  0.94593  0.43786  Biso   1.000  O 
  Ca3131   1.0000 0.79178  0.99945  0.39299  Biso   1.000  Ca
  Ca3132   1.0000 0.95844  0.93696  0.39300  Biso   1.000  Ca
  Ca3133   1.0000 0.95844  0.99982  0.39300  Biso   1.000  Ca
  Ca3134   1.0000 0.79178  0.93731  0.39299  Biso   1.000  Ca
  Ca3135   1.0000 0.84506  0.96838  0.40675  Biso   1.000  Ca
  P1879    1.0000 0.87136  0.96838  0.43460  Biso   1.000  P 
  O8151    1.0000 0.98484  0.96838  0.39582  Biso   1.000  O 
  O8152    1.0000 0.89463  0.96838  0.43713  Biso   1.000  O 
  Ca3136   1.0000 0.99929  0.96838  0.42078  Biso   1.000  Ca
  P1880    1.0000 0.95404  0.96838  0.42397  Biso   1.000  P 
  O8153    1.0000 0.94200  0.96838  0.40876  Biso   1.000  O 
  O8154    1.0000 0.93949  0.96838  0.43784  Biso   1.000  O 
  Ca3137   1.0000 0.90599  0.96838  0.40568  Biso   1.000  Ca
  P1881    1.0000 0.79995  0.96838  0.42886  Biso   1.000  P 
  O8155    1.0000 0.82350  0.96838  0.42864  Biso   1.000  O 
  O8156    1.0000 0.79122  0.96838  0.41246  Biso   1.000  O 
  Ca3138   1.0000 0.78018  0.90589  0.43346  Biso   1.000  Ca
  P1882    1.0000 0.75386  0.90589  0.40561  Biso   1.000  P 
  O8157    1.0000 0.89039  0.90589  0.44439  Biso   1.000  O 
  O8158    1.0000 0.98060  0.90589  0.40309  Biso   1.000  O 
  Ca3139   1.0000 0.87593  0.90589  0.41943  Biso   1.000  Ca
  P1883    1.0000 0.92119  0.90589  0.41624  Biso   1.000  P 
  O8159    1.0000 0.93322  0.90589  0.43146  Biso   1.000  O 
  O8160    1.0000 0.93573  0.90589  0.40237  Biso   1.000  O 
  Ca3140   1.0000 0.96922  0.90589  0.43454  Biso   1.000  Ca
  P1884    1.0000 0.82528  0.90589  0.41135  Biso   1.000  P 
  O8161    1.0000 0.80172  0.90589  0.41157  Biso   1.000  O 
  O8162    1.0000 0.83400  0.90589  0.42775  Biso   1.000  O 
  O8163    1.0000 0.87511  0.89938  0.39300  Biso   1.000  O 
  O8164    1.0000 0.87511  0.96187  0.39300  Biso   1.000  O 
  H627     1.0000 0.87511  0.87920  0.39300  Biso   1.000  H 
  H628     1.0000 0.87522  0.94169  0.39295  Biso   1.000  H 
  O8165    1.0000 0.98942  0.99085  0.47982  Biso   1.000  O 
  O8166    1.0000 0.84286  0.99085  0.47817  Biso   1.000  O 
  O8167    1.0000 0.91805  0.99085  0.49208  Biso   1.000  O 
  O8168    1.0000 0.88580  0.92835  0.46882  Biso   1.000  O 
  O8169    1.0000 0.78236  0.92835  0.47047  Biso   1.000  O 
  O8170    1.0000 0.95717  0.92835  0.45657  Biso   1.000  O 
  O8171    1.0000 0.88580  0.88342  0.46882  Biso   1.000  O 
  O8172    1.0000 0.78236  0.88342  0.47047  Biso   1.000  O 
  O8173    1.0000 0.95717  0.88342  0.45657  Biso   1.000  O 
  O8174    1.0000 0.98942  0.94593  0.47982  Biso   1.000  O 
  O8175    1.0000 0.84286  0.94593  0.47817  Biso   1.000  O 
  O8176    1.0000 0.91805  0.94593  0.49208  Biso   1.000  O 
  Ca3141   1.0000 0.91678  0.99945  0.44721  Biso   1.000  Ca
  Ca3142   1.0000 0.83344  0.93696  0.44722  Biso   1.000  Ca
  Ca3143   1.0000 0.83344  0.99982  0.44722  Biso   1.000  Ca
  Ca3144   1.0000 0.91678  0.93731  0.44721  Biso   1.000  Ca
  Ca3145   1.0000 0.97006  0.96838  0.46097  Biso   1.000  Ca
  P1885    1.0000 0.99636  0.96838  0.48881  Biso   1.000  P 
  O8177    1.0000 0.85984  0.96838  0.45004  Biso   1.000  O 
  O8178    1.0000 0.76963  0.96838  0.49134  Biso   1.000  O 
  Ca3146   1.0000 0.87429  0.96838  0.47500  Biso   1.000  Ca
  P1886    1.0000 0.82904  0.96838  0.47819  Biso   1.000  P 
  O8179    1.0000 0.81700  0.96838  0.46298  Biso   1.000  O 
  O8180    1.0000 0.81449  0.96838  0.49206  Biso   1.000  O 
  Ca3147   1.0000 0.78099  0.96838  0.45990  Biso   1.000  Ca
  P1887    1.0000 0.92495  0.96838  0.48308  Biso   1.000  P 
  O8181    1.0000 0.94850  0.96838  0.48285  Biso   1.000  O 
  O8182    1.0000 0.91622  0.96838  0.46667  Biso   1.000  O 
  Ca3148   1.0000 0.90518  0.90589  0.48768  Biso   1.000  Ca
  P1888    1.0000 0.87886  0.90589  0.45983  Biso   1.000  P 
  O8183    1.0000 0.76539  0.90589  0.49861  Biso   1.000  O 
  O8184    1.0000 0.85560  0.90589  0.45731  Biso   1.000  O 
  Ca3149   1.0000 0.75093  0.90589  0.47365  Biso   1.000  Ca
  P1889    1.0000 0.79619  0.90589  0.47046  Biso   1.000  P 
  O8185    1.0000 0.80822  0.90589  0.48568  Biso   1.000  O 
  O8186    1.0000 0.81073  0.90589  0.45658  Biso   1.000  O 
  Ca3150   1.0000 0.84422  0.90589  0.48875  Biso   1.000  Ca
  P1890    1.0000 0.95028  0.90589  0.46557  Biso   1.000  P 
  O8187    1.0000 0.92672  0.90589  0.46579  Biso   1.000  O 
  O8188    1.0000 0.95900  0.90589  0.48197  Biso   1.000  O 
  O8189    1.0000 0.75011  0.89938  0.44722  Biso   1.000  O 
  O8190    1.0000 0.75011  0.96187  0.44722  Biso   1.000  O 
  H629     1.0000 0.75011  0.87920  0.44722  Biso   1.000  H 
  H630     1.0000 0.75022  0.94169  0.44717  Biso   1.000  H 
  O8191    1.0000 0.86442  0.99085  0.53404  Biso   1.000  O 
  O8192    1.0000 0.96786  0.99085  0.53239  Biso   1.000  O 
  O8193    1.0000 0.79305  0.99085  0.54629  Biso   1.000  O 
  O8194    1.0000 0.76080  0.92835  0.52304  Biso   1.000  O 
  O8195    1.0000 0.90736  0.92835  0.52469  Biso   1.000  O 
  O8196    1.0000 0.83217  0.92835  0.51079  Biso   1.000  O 
  O8197    1.0000 0.76080  0.88342  0.52304  Biso   1.000  O 
  O8198    1.0000 0.90736  0.88342  0.52469  Biso   1.000  O 
  O8199    1.0000 0.83217  0.88342  0.51079  Biso   1.000  O 
  O8200    1.0000 0.86442  0.94593  0.53404  Biso   1.000  O 
  O8201    1.0000 0.96786  0.94593  0.53239  Biso   1.000  O 
  O8202    1.0000 0.79305  0.94593  0.54629  Biso   1.000  O 
  Ca3151   1.0000 0.79178  0.99945  0.50143  Biso   1.000  Ca
  Ca3152   1.0000 0.95844  0.93696  0.50144  Biso   1.000  Ca
  Ca3153   1.0000 0.95844  0.99982  0.50144  Biso   1.000  Ca
  Ca3154   1.0000 0.79178  0.93731  0.50143  Biso   1.000  Ca
  Ca3155   1.0000 0.84506  0.96838  0.51519  Biso   1.000  Ca
  P1891    1.0000 0.87136  0.96838  0.54303  Biso   1.000  P 
  O8203    1.0000 0.98484  0.96838  0.50426  Biso   1.000  O 
  O8204    1.0000 0.89463  0.96838  0.54556  Biso   1.000  O 
  Ca3156   1.0000 0.99929  0.96838  0.52922  Biso   1.000  Ca
  P1892    1.0000 0.95404  0.96838  0.53241  Biso   1.000  P 
  O8205    1.0000 0.94200  0.96838  0.51720  Biso   1.000  O 
  O8206    1.0000 0.93949  0.96838  0.54628  Biso   1.000  O 
  Ca3157   1.0000 0.90599  0.96838  0.51412  Biso   1.000  Ca
  P1893    1.0000 0.79995  0.96838  0.53729  Biso   1.000  P 
  O8207    1.0000 0.82350  0.96838  0.53707  Biso   1.000  O 
  O8208    1.0000 0.79122  0.96838  0.52089  Biso   1.000  O 
  Ca3158   1.0000 0.78018  0.90589  0.54190  Biso   1.000  Ca
  P1894    1.0000 0.75386  0.90589  0.51405  Biso   1.000  P 
  O8209    1.0000 0.89039  0.90589  0.55283  Biso   1.000  O 
  O8210    1.0000 0.98060  0.90589  0.51152  Biso   1.000  O 
  Ca3159   1.0000 0.87593  0.90589  0.52786  Biso   1.000  Ca
  P1895    1.0000 0.92119  0.90589  0.52468  Biso   1.000  P 
  O8211    1.0000 0.93322  0.90589  0.53989  Biso   1.000  O 
  O8212    1.0000 0.93573  0.90589  0.51080  Biso   1.000  O 
  Ca3160   1.0000 0.96922  0.90589  0.54297  Biso   1.000  Ca
  P1896    1.0000 0.82528  0.90589  0.51979  Biso   1.000  P 
  O8213    1.0000 0.80172  0.90589  0.52001  Biso   1.000  O 
  O8214    1.0000 0.83400  0.90589  0.53619  Biso   1.000  O 
  O8215    1.0000 0.87511  0.89938  0.50143  Biso   1.000  O 
  O8216    1.0000 0.87511  0.96187  0.50143  Biso   1.000  O 
  H631     1.0000 0.87511  0.87920  0.50143  Biso   1.000  H 
  H632     1.0000 0.87522  0.94169  0.50139  Biso   1.000  H 
  O8217    1.0000 0.98942  0.99085  0.58826  Biso   1.000  O 
  O8218    1.0000 0.84286  0.99085  0.58661  Biso   1.000  O 
  O8219    1.0000 0.91805  0.99085  0.60051  Biso   1.000  O 
  O8220    1.0000 0.88580  0.92835  0.57726  Biso   1.000  O 
  O8221    1.0000 0.78236  0.92835  0.57891  Biso   1.000  O 
  O8222    1.0000 0.95717  0.92835  0.56500  Biso   1.000  O 
  O8223    1.0000 0.88580  0.88342  0.57726  Biso   1.000  O 
  O8224    1.0000 0.78236  0.88342  0.57891  Biso   1.000  O 
  O8225    1.0000 0.95717  0.88342  0.56500  Biso   1.000  O 
  O8226    1.0000 0.98942  0.94593  0.58826  Biso   1.000  O 
  O8227    1.0000 0.84286  0.94593  0.58661  Biso   1.000  O 
  O8228    1.0000 0.91805  0.94593  0.60051  Biso   1.000  O 
  Ca3161   1.0000 0.91678  0.99945  0.55565  Biso   1.000  Ca
  Ca3162   1.0000 0.83344  0.93696  0.55565  Biso   1.000  Ca
  Ca3163   1.0000 0.83344  0.99982  0.55565  Biso   1.000  Ca
  Ca3164   1.0000 0.91678  0.93731  0.55565  Biso   1.000  Ca
  Ca3165   1.0000 0.97006  0.96838  0.56941  Biso   1.000  Ca
  P1897    1.0000 0.99636  0.96838  0.59725  Biso   1.000  P 
  O8229    1.0000 0.85984  0.96838  0.55847  Biso   1.000  O 
  O8230    1.0000 0.76963  0.96838  0.59978  Biso   1.000  O 
  Ca3166   1.0000 0.87429  0.96838  0.58343  Biso   1.000  Ca
  P1898    1.0000 0.82904  0.96838  0.58662  Biso   1.000  P 
  O8231    1.0000 0.81700  0.96838  0.57141  Biso   1.000  O 
  O8232    1.0000 0.81449  0.96838  0.60050  Biso   1.000  O 
  Ca3167   1.0000 0.78099  0.96838  0.56834  Biso   1.000  Ca
  P1899    1.0000 0.92495  0.96838  0.59151  Biso   1.000  P 
  O8233    1.0000 0.94850  0.96838  0.59129  Biso   1.000  O 
  O8234    1.0000 0.91622  0.96838  0.57511  Biso   1.000  O 
  Ca3168   1.0000 0.90518  0.90589  0.59611  Biso   1.000  Ca
  P1900    1.0000 0.87886  0.90589  0.56827  Biso   1.000  P 
  O8235    1.0000 0.76539  0.90589  0.60705  Biso   1.000  O 
  O8236    1.0000 0.85560  0.90589  0.56574  Biso   1.000  O 
  Ca3169   1.0000 0.75093  0.90589  0.58208  Biso   1.000  Ca
  P1901    1.0000 0.79619  0.90589  0.57890  Biso   1.000  P 
  O8237    1.0000 0.80822  0.90589  0.59411  Biso   1.000  O 
  O8238    1.0000 0.81073  0.90589  0.56502  Biso   1.000  O 
  Ca3170   1.0000 0.84422  0.90589  0.59719  Biso   1.000  Ca
  P1902    1.0000 0.95028  0.90589  0.57400  Biso   1.000  P 
  O8239    1.0000 0.92672  0.90589  0.57423  Biso   1.000  O 
  O8240    1.0000 0.95900  0.90589  0.59041  Biso   1.000  O 
  O8241    1.0000 0.75011  0.89938  0.55565  Biso   1.000  O 
  O8242    1.0000 0.75011  0.96187  0.55565  Biso   1.000  O 
  H633     1.0000 0.75011  0.87920  0.55565  Biso   1.000  H 
  H634     1.0000 0.75022  0.94169  0.55561  Biso   1.000  H 
  O8243    1.0000 0.86442  0.99085  0.64248  Biso   1.000  O 
  O8244    1.0000 0.96786  0.99085  0.64083  Biso   1.000  O 
  O8245    1.0000 0.79305  0.99085  0.65473  Biso   1.000  O 
  O8246    1.0000 0.76080  0.92835  0.63147  Biso   1.000  O 
  O8247    1.0000 0.90736  0.92835  0.63313  Biso   1.000  O 
  O8248    1.0000 0.83217  0.92835  0.61922  Biso   1.000  O 
  O8249    1.0000 0.76080  0.88342  0.63147  Biso   1.000  O 
  O8250    1.0000 0.90736  0.88342  0.63313  Biso   1.000  O 
  O8251    1.0000 0.83217  0.88342  0.61922  Biso   1.000  O 
  O8252    1.0000 0.86442  0.94593  0.64248  Biso   1.000  O 
  O8253    1.0000 0.96786  0.94593  0.64083  Biso   1.000  O 
  O8254    1.0000 0.79305  0.94593  0.65473  Biso   1.000  O 
  Ca3171   1.0000 0.79178  0.99945  0.60986  Biso   1.000  Ca
  Ca3172   1.0000 0.95844  0.93696  0.60987  Biso   1.000  Ca
  Ca3173   1.0000 0.95844  0.99982  0.60987  Biso   1.000  Ca
  Ca3174   1.0000 0.79178  0.93731  0.60986  Biso   1.000  Ca
  Ca3175   1.0000 0.84506  0.96838  0.62363  Biso   1.000  Ca
  P1903    1.0000 0.87136  0.96838  0.65147  Biso   1.000  P 
  O8255    1.0000 0.98484  0.96838  0.61269  Biso   1.000  O 
  O8256    1.0000 0.89463  0.96838  0.65400  Biso   1.000  O 
  Ca3176   1.0000 0.99929  0.96838  0.63765  Biso   1.000  Ca
  P1904    1.0000 0.95404  0.96838  0.64084  Biso   1.000  P 
  O8257    1.0000 0.94200  0.96838  0.62563  Biso   1.000  O 
  O8258    1.0000 0.93949  0.96838  0.65471  Biso   1.000  O 
  Ca3177   1.0000 0.90599  0.96838  0.62255  Biso   1.000  Ca
  P1905    1.0000 0.79995  0.96838  0.64573  Biso   1.000  P 
  O8259    1.0000 0.82350  0.96838  0.64551  Biso   1.000  O 
  O8260    1.0000 0.79122  0.96838  0.62933  Biso   1.000  O 
  Ca3178   1.0000 0.78018  0.90589  0.65033  Biso   1.000  Ca
  P1906    1.0000 0.75386  0.90589  0.62248  Biso   1.000  P 
  O8261    1.0000 0.89039  0.90589  0.66127  Biso   1.000  O 
  O8262    1.0000 0.98060  0.90589  0.61996  Biso   1.000  O 
  Ca3179   1.0000 0.87593  0.90589  0.63630  Biso   1.000  Ca
  P1907    1.0000 0.92119  0.90589  0.63312  Biso   1.000  P 
  O8263    1.0000 0.93322  0.90589  0.64833  Biso   1.000  O 
  O8264    1.0000 0.93573  0.90589  0.61924  Biso   1.000  O 
  Ca3180   1.0000 0.96922  0.90589  0.65141  Biso   1.000  Ca
  P1908    1.0000 0.82528  0.90589  0.62822  Biso   1.000  P 
  O8265    1.0000 0.80172  0.90589  0.62845  Biso   1.000  O 
  O8266    1.0000 0.83400  0.90589  0.64462  Biso   1.000  O 
  O8267    1.0000 0.87511  0.89938  0.60987  Biso   1.000  O 
  O8268    1.0000 0.87511  0.96187  0.60987  Biso   1.000  O 
  H635     1.0000 0.87511  0.87920  0.60987  Biso   1.000  H 
  H636     1.0000 0.87522  0.94169  0.60982  Biso   1.000  H 
  O8269    1.0000 0.98942  0.99085  0.69670  Biso   1.000  O 
  O8270    1.0000 0.84286  0.99085  0.69504  Biso   1.000  O 
  O8271    1.0000 0.91805  0.99085  0.70895  Biso   1.000  O 
  O8272    1.0000 0.88580  0.92835  0.68569  Biso   1.000  O 
  O8273    1.0000 0.78236  0.92835  0.68734  Biso   1.000  O 
  O8274    1.0000 0.95717  0.92835  0.67344  Biso   1.000  O 
  O8275    1.0000 0.88580  0.88342  0.68569  Biso   1.000  O 
  O8276    1.0000 0.78236  0.88342  0.68734  Biso   1.000  O 
  O8277    1.0000 0.95717  0.88342  0.67344  Biso   1.000  O 
  O8278    1.0000 0.98942  0.94593  0.69670  Biso   1.000  O 
  O8279    1.0000 0.84286  0.94593  0.69504  Biso   1.000  O 
  O8280    1.0000 0.91805  0.94593  0.70895  Biso   1.000  O 
  Ca3181   1.0000 0.91678  0.99945  0.66408  Biso   1.000  Ca
  Ca3182   1.0000 0.83344  0.93696  0.66409  Biso   1.000  Ca
  Ca3183   1.0000 0.83344  0.99982  0.66409  Biso   1.000  Ca
  Ca3184   1.0000 0.91678  0.93731  0.66408  Biso   1.000  Ca
  Ca3185   1.0000 0.97006  0.96838  0.67784  Biso   1.000  Ca
  P1909    1.0000 0.99636  0.96838  0.70569  Biso   1.000  P 
  O8281    1.0000 0.85984  0.96838  0.66691  Biso   1.000  O 
  O8282    1.0000 0.76963  0.96838  0.70822  Biso   1.000  O 
  Ca3186   1.0000 0.87429  0.96838  0.69187  Biso   1.000  Ca
  P1910    1.0000 0.82904  0.96838  0.69506  Biso   1.000  P 
  O8283    1.0000 0.81700  0.96838  0.67985  Biso   1.000  O 
  O8284    1.0000 0.81449  0.96838  0.70893  Biso   1.000  O 
  Ca3187   1.0000 0.78099  0.96838  0.67677  Biso   1.000  Ca
  P1911    1.0000 0.92495  0.96838  0.69995  Biso   1.000  P 
  O8285    1.0000 0.94850  0.96838  0.69973  Biso   1.000  O 
  O8286    1.0000 0.91622  0.96838  0.68355  Biso   1.000  O 
  Ca3188   1.0000 0.90518  0.90589  0.70455  Biso   1.000  Ca
  P1912    1.0000 0.87886  0.90589  0.67670  Biso   1.000  P 
  O8287    1.0000 0.76539  0.90589  0.71548  Biso   1.000  O 
  O8288    1.0000 0.85560  0.90589  0.67418  Biso   1.000  O 
  Ca3189   1.0000 0.75093  0.90589  0.69052  Biso   1.000  Ca
  P1913    1.0000 0.79619  0.90589  0.68733  Biso   1.000  P 
  O8289    1.0000 0.80822  0.90589  0.70255  Biso   1.000  O 
  O8290    1.0000 0.81073  0.90589  0.67346  Biso   1.000  O 
  Ca3190   1.0000 0.84422  0.90589  0.70563  Biso   1.000  Ca
  P1914    1.0000 0.95028  0.90589  0.68244  Biso   1.000  P 
  O8291    1.0000 0.92672  0.90589  0.68266  Biso   1.000  O 
  O8292    1.0000 0.95900  0.90589  0.69884  Biso   1.000  O 
  O8293    1.0000 0.75011  0.89938  0.66409  Biso   1.000  O 
  O8294    1.0000 0.75011  0.96187  0.66409  Biso   1.000  O 
  H637     1.0000 0.75011  0.87920  0.66409  Biso   1.000  H 
  H638     1.0000 0.75022  0.94169  0.66404  Biso   1.000  H 
  O8295    1.0000 0.86442  0.99085  0.75091  Biso   1.000  O 
  O8296    1.0000 0.96786  0.99085  0.74926  Biso   1.000  O 
  O8297    1.0000 0.79305  0.99085  0.76317  Biso   1.000  O 
  O8298    1.0000 0.76080  0.92835  0.73991  Biso   1.000  O 
  O8299    1.0000 0.90736  0.92835  0.74156  Biso   1.000  O 
  O8300    1.0000 0.83217  0.92835  0.72766  Biso   1.000  O 
  O8301    1.0000 0.76080  0.88342  0.73991  Biso   1.000  O 
  O8302    1.0000 0.90736  0.88342  0.74156  Biso   1.000  O 
  O8303    1.0000 0.83217  0.88342  0.72766  Biso   1.000  O 
  O8304    1.0000 0.86442  0.94593  0.75091  Biso   1.000  O 
  O8305    1.0000 0.96786  0.94593  0.74926  Biso   1.000  O 
  O8306    1.0000 0.79305  0.94593  0.76317  Biso   1.000  O 
  Ca3191   1.0000 0.79178  0.99945  0.71830  Biso   1.000  Ca
  Ca3192   1.0000 0.95844  0.93696  0.71831  Biso   1.000  Ca
  Ca3193   1.0000 0.95844  0.99982  0.71831  Biso   1.000  Ca
  Ca3194   1.0000 0.79178  0.93731  0.71830  Biso   1.000  Ca
  Ca3195   1.0000 0.84506  0.96838  0.73206  Biso   1.000  Ca
  P1915    1.0000 0.87136  0.96838  0.75990  Biso   1.000  P 
  O8307    1.0000 0.98484  0.96838  0.72113  Biso   1.000  O 
  O8308    1.0000 0.89463  0.96838  0.76243  Biso   1.000  O 
  Ca3196   1.0000 0.99929  0.96838  0.74609  Biso   1.000  Ca
  P1916    1.0000 0.95404  0.96838  0.74928  Biso   1.000  P 
  O8309    1.0000 0.94200  0.96838  0.73407  Biso   1.000  O 
  O8310    1.0000 0.93949  0.96838  0.76315  Biso   1.000  O 
  Ca3197   1.0000 0.90599  0.96838  0.73099  Biso   1.000  Ca
  P1917    1.0000 0.79995  0.96838  0.75417  Biso   1.000  P 
  O8311    1.0000 0.82350  0.96838  0.75394  Biso   1.000  O 
  O8312    1.0000 0.79122  0.96838  0.73776  Biso   1.000  O 
  Ca3198   1.0000 0.78018  0.90589  0.75877  Biso   1.000  Ca
  P1918    1.0000 0.75386  0.90589  0.73092  Biso   1.000  P 
  O8313    1.0000 0.89039  0.90589  0.76970  Biso   1.000  O 
  O8314    1.0000 0.98060  0.90589  0.72840  Biso   1.000  O 
  Ca3199   1.0000 0.87593  0.90589  0.74474  Biso   1.000  Ca
  P1919    1.0000 0.92119  0.90589  0.74155  Biso   1.000  P 
  O8315    1.0000 0.93322  0.90589  0.75677  Biso   1.000  O 
  O8316    1.0000 0.93573  0.90589  0.72767  Biso   1.000  O 
  Ca3200   1.0000 0.96922  0.90589  0.75984  Biso   1.000  Ca
  P1920    1.0000 0.82528  0.90589  0.73666  Biso   1.000  P 
  O8317    1.0000 0.80172  0.90589  0.73688  Biso   1.000  O 
  O8318    1.0000 0.83400  0.90589  0.75306  Biso   1.000  O 
  O8319    1.0000 0.87511  0.89938  0.71831  Biso   1.000  O 
  O8320    1.0000 0.87511  0.96187  0.71831  Biso   1.000  O 
  H639     1.0000 0.87511  0.87920  0.71831  Biso   1.000  H 
  H640     1.0000 0.87522  0.94169  0.71826  Biso   1.000  H 
